32176083 32176082
 OpenBabel01161410563D

 21 22  0  0  1  0  0  0  0  0999 V2000
    0.8536   -0.1621    0.0539 O   0  0  0  0  0  0  0  0  0  0  0  0
    2.2936   -0.1188    0.0032 C   0  0  2  0  0  0  0  0  0  0  0  0
    2.5648    0.0870   -1.0390 H   0  0  0  0  0  0  0  0  0  0  0  0
    2.8489   -1.5005    0.4056 C   0  0  2  0  0  0  0  0  0  0  0  0
    3.9443   -1.4741    0.3827 H   0  0  0  0  0  0  0  0  0  0  0  0
    2.4338   -2.4833   -0.5515 O   0  0  0  0  0  0  0  0  0  0  0  0
    2.3696   -1.9128    1.8133 C   0  0  2  0  0  0  0  0  0  0  0  0
    2.9097   -2.8123    2.1239 H   0  0  0  0  0  0  0  0  0  0  0  0
    0.9844   -2.2714    1.7751 O   0  0  0  0  0  0  0  0  0  0  0  0
    2.5776   -0.8186    2.8219 C   0  0  2  0  0  0  0  0  0  0  0  0
    2.9501   -1.1698    3.7746 H   0  0  0  0  0  0  0  0  0  0  0  0
    2.8168    0.6092    2.3845 C   0  0  1  0  0  0  0  0  0  0  0  0
    3.3733    1.2857    3.0198 H   0  0  0  0  0  0  0  0  0  0  0  0
    2.8603    0.9810    0.9310 C   0  0  1  0  0  0  0  0  0  0  0  0
    2.2849    1.9024    0.7940 H   0  0  0  0  0  0  0  0  0  0  0  0
    4.2108    1.2840    0.5794 O   0  0  0  0  0  0  0  0  0  0  0  0
    1.5408    0.1796    2.8601 O   0  0  0  0  0  0  0  0  0  0  0  0
    0.5309    0.7494   -0.0768 H   0  0  0  0  0  0  0  0  0  0  0  0
    1.4786   -2.6173   -0.3809 H   0  0  0  0  0  0  0  0  0  0  0  0
    0.5133   -1.4719    1.4578 H   0  0  0  0  0  0  0  0  0  0  0  0
    4.7833    0.5400    0.8281 H   0  0  0  0  0  0  0  0  0  0  0  0
  1  2  1  0  0  0  0
  1 18  1  0  0  0  0
  2  4  1  0  0  0  0
  2 14  1  0  0  0  0
  2  3  1  6  0  0  0
  4  7  1  0  0  0  0
  4  5  1  1  0  0  0
  4  6  1  0  0  0  0
  6 19  1  0  0  0  0
  7 10  1  0  0  0  0
  7  8  1  1  0  0  0
  7  9  1  0  0  0  0
  9 20  1  0  0  0  0
 10 17  1  0  0  0  0
 10 12  1  0  0  0  0
 10 11  1  6  0  0  0
 12 17  1  0  0  0  0
 12 14  1  0  0  0  0
 12 13  1  1  0  0  0
 14 15  1  6  0  0  0
 14 16  1  0  0  0  0
 16 21  1  0  0  0  0
M  END
$$$$