772960 772959
 OpenBabel01161410533D

 28 28  0  0  0  0  0  0  0  0999 V2000
    1.4482   -0.3654    0.8768 O   0  0  0  0  0  0  0  0  0  0  0  0
    1.5400    0.5328   -0.2308 C   0  0  0  0  0  0  0  0  0  0  0  0
    2.8808    1.3019   -0.2083 C   0  0  0  0  0  0  0  0  0  0  0  0
    3.1038    1.9687    1.1601 C   0  0  0  0  0  0  0  0  0  0  0  0
    3.2889    1.0200    2.2028 O   0  0  0  0  0  0  0  0  0  0  0  0
    4.0318    0.3394   -0.5302 C   0  0  0  0  0  0  0  0  0  0  0  0
    3.9359   -0.1515   -1.8666 O   0  0  0  0  0  0  0  0  0  0  0  0
    3.8596    0.8721   -2.8580 C   0  0  0  0  0  0  0  0  0  0  0  0
    2.7981    1.7938   -2.5967 O   0  0  0  0  0  0  0  0  0  0  0  0
    2.8584    2.3760   -1.3003 C   0  0  0  0  0  0  0  0  0  0  0  0
    3.4851    0.1643   -4.1625 C   0  0  0  0  0  0  0  0  0  0  0  0
    5.2037    1.5810   -3.0574 C   0  0  0  0  0  0  0  0  0  0  0  0
    0.6879   -0.9492    0.6963 H   0  0  0  0  0  0  0  0  0  0  0  0
    0.6959    1.2272   -0.1545 H   0  0  0  0  0  0  0  0  0  0  0  0
    1.4168   -0.0463   -1.1524 H   0  0  0  0  0  0  0  0  0  0  0  0
    2.2535    2.6056    1.4280 H   0  0  0  0  0  0  0  0  0  0  0  0
    3.9954    2.6049    1.1428 H   0  0  0  0  0  0  0  0  0  0  0  0
    2.5901    0.3385    2.0831 H   0  0  0  0  0  0  0  0  0  0  0  0
    4.0191   -0.5324    0.1334 H   0  0  0  0  0  0  0  0  0  0  0  0
    5.0081    0.8179   -0.3912 H   0  0  0  0  0  0  0  0  0  0  0  0
    3.7300    3.0378   -1.2392 H   0  0  0  0  0  0  0  0  0  0  0  0
    1.9782    3.0201   -1.1901 H   0  0  0  0  0  0  0  0  0  0  0  0
    2.5254   -0.3553   -4.0531 H   0  0  0  0  0  0  0  0  0  0  0  0
    4.2299   -0.5903   -4.4376 H   0  0  0  0  0  0  0  0  0  0  0  0
    3.3731    0.8765   -4.9874 H   0  0  0  0  0  0  0  0  0  0  0  0
    5.5376    2.1017   -2.1550 H   0  0  0  0  0  0  0  0  0  0  0  0
    5.1354    2.3363   -3.8482 H   0  0  0  0  0  0  0  0  0  0  0  0
    5.9913    0.8635   -3.3126 H   0  0  0  0  0  0  0  0  0  0  0  0
  1  2  1  0  0  0  0
  1 13  1  0  0  0  0
  2  3  1  0  0  0  0
  2 14  1  0  0  0  0
  2 15  1  0  0  0  0
  3 10  1  0  0  0  0
  3  6  1  0  0  0  0
  3  4  1  0  0  0  0
  4  5  1  0  0  0  0
  4 16  1  0  0  0  0
  4 17  1  0  0  0  0
  5 18  1  0  0  0  0
  6  7  1  0  0  0  0
  6 19  1  0  0  0  0
  6 20  1  0  0  0  0
  7  8  1  0  0  0  0
  8  9  1  0  0  0  0
  8 12  1  0  0  0  0
  8 11  1  0  0  0  0
  9 10  1  0  0  0  0
 10 21  1  0  0  0  0
 10 22  1  0  0  0  0
 11 23  1  0  0  0  0
 11 24  1  0  0  0  0
 11 25  1  0  0  0  0
 12 26  1  0  0  0  0
 12 27  1  0  0  0  0
 12 28  1  0  0  0  0
M  END
$$$$