27516570 27516569
 OpenBabel01161410543D

 37 39  0  0  1  0  0  0  0  0999 V2000
   -0.5381   -1.4096   -3.1292 O   0  0  0  0  0  0  0  0  0  0  0  0
    0.8310   -1.1883   -2.7676 C   0  0  0  0  0  0  0  0  0  0  0  0
    1.3940   -2.4948   -2.1953 C   0  0  2  0  0  0  0  0  0  0  0  0
    0.8232   -2.7548   -1.2954 H   0  0  0  0  0  0  0  0  0  0  0  0
    2.8891   -2.3790   -1.8641 C   0  0  2  0  0  0  0  0  0  0  0  0
    3.4497   -2.1689   -2.7841 H   0  0  0  0  0  0  0  0  0  0  0  0
    3.4213   -3.6783   -1.2280 C   0  0  0  0  0  0  0  0  0  0  0  0
    4.9182   -3.6626   -1.0298 C   0  0  0  0  0  0  0  0  0  0  0  0
    5.6518   -4.8368   -1.0389 C   0  0  0  0  0  0  0  0  0  0  0  0
    6.9871   -4.8684   -0.8235 N   0  0  0  0  0  0  0  0  0  0  0  0
    7.5875   -3.6863   -0.5850 C   0  0  0  0  0  0  0  0  0  0  0  0
    6.8460   -2.4833   -0.5538 C   0  0  0  0  0  0  0  0  0  0  0  0
    5.5153   -2.4710   -0.7652 N   0  0  0  0  0  0  0  0  0  0  0  0
    7.5008   -1.2846   -0.3047 C   0  0  0  0  0  0  0  0  0  0  0  0
    8.8844   -1.2312   -0.0911 C   0  0  0  0  0  0  0  0  0  0  0  0
    9.6275   -2.4280   -0.1229 C   0  0  0  0  0  0  0  0  0  0  0  0
    8.9589   -3.6382   -0.3668 C   0  0  0  0  0  0  0  0  0  0  0  0
   11.0157   -2.3790    0.0859 C   0  0  0  0  0  0  0  0  0  0  0  0
   11.6585   -1.1621    0.3208 C   0  0  0  0  0  0  0  0  0  0  0  0
   10.9229    0.0186    0.3528 C   0  0  0  0  0  0  0  0  0  0  0  0
    9.5429   -0.0147    0.1497 C   0  0  0  0  0  0  0  0  0  0  0  0
    3.0781   -1.2733   -0.9702 O   0  0  0  0  0  0  0  0  0  0  0  0
    1.1725   -3.5436   -3.1488 O   0  0  0  0  0  0  0  0  0  0  0  0
   -0.8953   -0.5417   -3.3877 H   0  0  0  0  0  0  0  0  0  0  0  0
    0.8743   -0.3749   -2.0376 H   0  0  0  0  0  0  0  0  0  0  0  0
    1.3652   -0.8965   -3.6775 H   0  0  0  0  0  0  0  0  0  0  0  0
    3.1613   -4.5332   -1.8635 H   0  0  0  0  0  0  0  0  0  0  0  0
    2.9604   -3.8306   -0.2444 H   0  0  0  0  0  0  0  0  0  0  0  0
    5.1880   -5.8021   -1.2205 H   0  0  0  0  0  0  0  0  0  0  0  0
    6.9107   -0.3710   -0.2844 H   0  0  0  0  0  0  0  0  0  0  0  0
    9.5141   -4.5733   -0.3945 H   0  0  0  0  0  0  0  0  0  0  0  0
   11.6087   -3.2912    0.0642 H   0  0  0  0  0  0  0  0  0  0  0  0
   12.7337   -1.1373    0.4777 H   0  0  0  0  0  0  0  0  0  0  0  0
   11.4221    0.9670    0.5353 H   0  0  0  0  0  0  0  0  0  0  0  0
    8.9848    0.9190    0.1777 H   0  0  0  0  0  0  0  0  0  0  0  0
    4.0287   -1.3053   -0.7218 H   0  0  0  0  0  0  0  0  0  0  0  0
    0.2584   -3.3884   -3.4673 H   0  0  0  0  0  0  0  0  0  0  0  0
  1  2  1  0  0  0  0
  1 24  1  0  0  0  0
  2 25  1  0  0  0  0
  2 26  1  0  0  0  0
  3  4  1  1  0  0  0
  3 23  1  0  0  0  0
  3  2  1  0  0  0  0
  5  7  1  0  0  0  0
  5  6  1  6  0  0  0
  5 22  1  0  0  0  0
  5  3  1  0  0  0  0
  7  8  1  0  0  0  0
  7 27  1  0  0  0  0
  7 28  1  0  0  0  0
  8  9  2  0  0  0  0
  8 13  1  0  0  0  0
  9 10  1  0  0  0  0
  9 29  1  0  0  0  0
 10 11  2  0  0  0  0
 11 17  1  0  0  0  0
 11 12  1  0  0  0  0
 12 14  1  0  0  0  0
 12 13  2  0  0  0  0
 14 15  2  0  0  0  0
 14 30  1  0  0  0  0
 15 16  1  0  0  0  0
 15 21  1  0  0  0  0
 16 17  2  0  0  0  0
 16 18  1  0  0  0  0
 17 31  1  0  0  0  0
 18 19  2  0  0  0  0
 18 32  1  0  0  0  0
 19 20  1  0  0  0  0
 19 33  1  0  0  0  0
 20 21  2  0  0  0  0
 20 34  1  0  0  0  0
 21 35  1  0  0  0  0
 22 36  1  0  0  0  0
 23 37  1  0  0  0  0
M  END
$$$$