27676784 27676783
 OpenBabel01161410093D

 21 21  0  0  0  0  0  0  0  0999 V2000
    4.0203   -0.6974   -0.1977 C   0  0  0  0  0  0  0  0  0  0  0  0
    3.3985    0.6915   -0.2449 C   0  0  0  0  0  0  0  0  0  0  0  0
    3.1969    1.2783    1.1556 C   0  0  0  0  0  0  0  0  0  0  0  0
    2.5739    2.6419    1.0829 C   0  0  0  0  0  0  0  0  0  0  0  0
    1.1869    2.8027    1.0972 C   0  0  0  0  0  0  0  0  0  0  0  0
    0.3869    1.7305    1.1570 F   0  0  0  0  0  0  0  0  0  0  0  0
    0.5956    4.0655    1.0259 C   0  0  0  0  0  0  0  0  0  0  0  0
    1.3978    5.2002    0.9295 C   0  0  0  0  0  0  0  0  0  0  0  0
    2.7799    5.0520    0.8978 C   0  0  0  0  0  0  0  0  0  0  0  0
    3.3607    3.7873    0.9696 C   0  0  0  0  0  0  0  0  0  0  0  0
    4.6959    3.6789    0.9032 F   0  0  0  0  0  0  0  0  0  0  0  0
    3.5525    6.1405    0.7851 F   0  0  0  0  0  0  0  0  0  0  0  0
    2.4413    0.4017    1.8805 F   0  0  0  0  0  0  0  0  0  0  0  0
    4.4062    1.2958    1.7892 F   0  0  0  0  0  0  0  0  0  0  0  0
    4.1598   -1.0829   -1.2126 H   0  0  0  0  0  0  0  0  0  0  0  0
    3.3776   -1.3981    0.3445 H   0  0  0  0  0  0  0  0  0  0  0  0
    4.9981   -0.6755    0.2934 H   0  0  0  0  0  0  0  0  0  0  0  0
    2.4367    0.6243   -0.7675 H   0  0  0  0  0  0  0  0  0  0  0  0
    4.0509    1.3449   -0.8365 H   0  0  0  0  0  0  0  0  0  0  0  0
   -0.4876    4.1515    1.0416 H   0  0  0  0  0  0  0  0  0  0  0  0
    0.9592    6.1916    0.8709 H   0  0  0  0  0  0  0  0  0  0  0  0
  1  2  1  0  0  0  0
  1 15  1  0  0  0  0
  1 16  1  0  0  0  0
  1 17  1  0  0  0  0
  2  3  1  0  0  0  0
  2 18  1  0  0  0  0
  2 19  1  0  0  0  0
  3 14  1  0  0  0  0
  3 13  1  0  0  0  0
  3  4  1  0  0  0  0
  4  5  2  0  0  0  0
  4 10  1  0  0  0  0
  5  7  1  0  0  0  0
  5  6  1  0  0  0  0
  7  8  2  0  0  0  0
  7 20  1  0  0  0  0
  8  9  1  0  0  0  0
  8 21  1  0  0  0  0
  9 10  2  0  0  0  0
  9 12  1  0  0  0  0
 10 11  1  0  0  0  0
M  END
$$$$