18598628 18598627
 OpenBabel01161410173D

 16 15  0  0  0  0  0  0  0  0999 V2000
    4.0571   -1.1713   -1.8850 C   0  0  0  0  0  0  0  0  0  0  0  0
    3.1276   -0.7440   -0.9023 O   0  0  0  0  0  0  0  0  0  0  0  0
    3.2577   -1.3590    0.6410 Si  0  0  0  0  0  0  0  0  0  0  0  0
    2.1431   -0.7924    1.4365 H   0  0  0  0  0  0  0  0  0  0  0  0
    3.0354   -3.0105    0.5833 O   0  0  0  0  0  0  0  0  0  0  0  0
    1.7650   -3.5022    0.1849 C   0  0  0  0  0  0  0  0  0  0  0  0
    4.8514   -0.8950    1.4641 C   0  0  0  0  0  0  0  0  0  0  0  0
    3.7924   -0.6916   -2.8328 H   0  0  0  0  0  0  0  0  0  0  0  0
    4.0132   -2.2561   -2.0352 H   0  0  0  0  0  0  0  0  0  0  0  0
    5.0766   -0.8651   -1.6271 H   0  0  0  0  0  0  0  0  0  0  0  0
    1.7999   -4.5952    0.2167 H   0  0  0  0  0  0  0  0  0  0  0  0
    1.5270   -3.2037   -0.8421 H   0  0  0  0  0  0  0  0  0  0  0  0
    0.9764   -3.1703    0.8692 H   0  0  0  0  0  0  0  0  0  0  0  0
    5.7081   -1.3239    0.9360 H   0  0  0  0  0  0  0  0  0  0  0  0
    4.8798   -1.2566    2.4960 H   0  0  0  0  0  0  0  0  0  0  0  0
    4.9800    0.1911    1.4856 H   0  0  0  0  0  0  0  0  0  0  0  0
  1  2  1  0  0  0  0
  1  8  1  0  0  0  0
  1  9  1  0  0  0  0
  1 10  1  0  0  0  0
  2  3  1  0  0  0  0
  3  7  1  0  0  0  0
  3  5  1  0  0  0  0
  3  4  1  0  0  0  0
  5  6  1  0  0  0  0
  6 11  1  0  0  0  0
  6 12  1  0  0  0  0
  6 13  1  0  0  0  0
  7 14  1  0  0  0  0
  7 15  1  0  0  0  0
  7 16  1  0  0  0  0
M  END
$$$$