36662980 36662979
 OpenBabel01161410503D

 47 49  0  0  0  0  0  0  0  0999 V2000
    9.8934   -6.4581   -3.6191 C   0  0  0  0  0  0  0  0  0  0  0  0
    8.9458   -5.4528   -2.9740 C   0  0  0  0  0  0  0  0  0  0  0  0
    7.4846   -5.6383   -3.3111 C   0  0  0  0  0  0  0  0  0  0  0  0
    6.5158   -5.2604   -2.3709 C   0  0  0  0  0  0  0  0  0  0  0  0
    5.1549   -5.4357   -2.6339 C   0  0  0  0  0  0  0  0  0  0  0  0
    4.7291   -6.0245   -3.8313 C   0  0  0  0  0  0  0  0  0  0  0  0
    5.6922   -6.3282   -4.8021 C   0  0  0  0  0  0  0  0  0  0  0  0
    7.0522   -6.1309   -4.5477 C   0  0  0  0  0  0  0  0  0  0  0  0
    3.2658   -6.2917   -4.1225 C   0  0  0  0  0  0  0  0  0  0  0  0
    2.4559   -6.7001   -2.9590 N   0  0  0  0  0  0  0  0  0  0  0  0
    1.0173   -6.7910   -3.2864 C   0  0  0  0  0  0  0  0  0  0  0  0
    0.0299   -6.2464   -2.2875 C   0  0  0  0  0  0  0  0  0  0  0  0
    0.2233   -5.5512   -3.6014 C   0  0  0  0  0  0  0  0  0  0  0  0
    2.9485   -7.9260   -2.2826 C   0  0  0  0  0  0  0  0  0  0  0  0
    3.0661   -9.1523   -3.1287 C   0  0  0  0  0  0  0  0  0  0  0  0
    2.1522  -10.0415   -3.4525 N   0  0  0  0  0  0  0  0  0  0  0  0
    2.7845  -10.9788   -4.2443 N   0  0  0  0  0  0  0  0  0  0  0  0
    4.0404  -10.5970   -4.3430 C   0  0  0  0  0  0  0  0  0  0  0  0
    4.2997   -9.4440   -3.6497 O   0  0  0  0  0  0  0  0  0  0  0  0
    5.1635  -11.2417   -5.0774 C   0  0  0  0  0  0  0  0  0  0  0  0
    5.9724  -10.2241   -5.8805 C   0  0  0  0  0  0  0  0  0  0  0  0
    6.0640  -12.0160   -4.1177 C   0  0  0  0  0  0  0  0  0  0  0  0
   10.9024   -6.3388   -3.2119 H   0  0  0  0  0  0  0  0  0  0  0  0
    9.9578   -6.3104   -4.7018 H   0  0  0  0  0  0  0  0  0  0  0  0
    9.5703   -7.4878   -3.4320 H   0  0  0  0  0  0  0  0  0  0  0  0
    9.2444   -4.4359   -3.2536 H   0  0  0  0  0  0  0  0  0  0  0  0
    9.0695   -5.5396   -1.8869 H   0  0  0  0  0  0  0  0  0  0  0  0
    6.8146   -4.8360   -1.4148 H   0  0  0  0  0  0  0  0  0  0  0  0
    4.4268   -5.1391   -1.8814 H   0  0  0  0  0  0  0  0  0  0  0  0
    5.3909   -6.7331   -5.7657 H   0  0  0  0  0  0  0  0  0  0  0  0
    7.7643   -6.3811   -5.3295 H   0  0  0  0  0  0  0  0  0  0  0  0
    3.1749   -7.0402   -4.9204 H   0  0  0  0  0  0  0  0  0  0  0  0
    2.8655   -5.3551   -4.5316 H   0  0  0  0  0  0  0  0  0  0  0  0
    0.7168   -7.6838   -3.8350 H   0  0  0  0  0  0  0  0  0  0  0  0
    0.4085   -5.7500   -1.4014 H   0  0  0  0  0  0  0  0  0  0  0  0
   -0.8884   -6.7989   -2.1308 H   0  0  0  0  0  0  0  0  0  0  0  0
   -0.5657   -5.6356   -4.3400 H   0  0  0  0  0  0  0  0  0  0  0  0
    0.7248   -4.5916   -3.5964 H   0  0  0  0  0  0  0  0  0  0  0  0
    2.2788   -8.1534   -1.4450 H   0  0  0  0  0  0  0  0  0  0  0  0
    3.9166   -7.7304   -1.8084 H   0  0  0  0  0  0  0  0  0  0  0  0
    4.7301  -11.9578   -5.7870 H   0  0  0  0  0  0  0  0  0  0  0  0
    6.4857   -9.5095   -5.2273 H   0  0  0  0  0  0  0  0  0  0  0  0
    5.3265   -9.6532   -6.5569 H   0  0  0  0  0  0  0  0  0  0  0  0
    6.7332  -10.7274   -6.4867 H   0  0  0  0  0  0  0  0  0  0  0  0
    6.5240  -11.3550   -3.3743 H   0  0  0  0  0  0  0  0  0  0  0  0
    6.8675  -12.5232   -4.6628 H   0  0  0  0  0  0  0  0  0  0  0  0
    5.4943  -12.7790   -3.5751 H   0  0  0  0  0  0  0  0  0  0  0  0
  1  2  1  0  0  0  0
  1 23  1  0  0  0  0
  1 24  1  0  0  0  0
  1 25  1  0  0  0  0
  2  3  1  0  0  0  0
  2 26  1  0  0  0  0
  2 27  1  0  0  0  0
  3  4  2  0  0  0  0
  3  8  1  0  0  0  0
  4  5  1  0  0  0  0
  4 28  1  0  0  0  0
  5  6  2  0  0  0  0
  5 29  1  0  0  0  0
  6  7  1  0  0  0  0
  6  9  1  0  0  0  0
  7  8  2  0  0  0  0
  7 30  1  0  0  0  0
  8 31  1  0  0  0  0
  9 10  1  0  0  0  0
  9 32  1  0  0  0  0
  9 33  1  0  0  0  0
 10 14  1  0  0  0  0
 10 11  1  0  0  0  0
 11 13  1  0  0  0  0
 11 12  1  0  0  0  0
 11 34  1  0  0  0  0
 12 13  1  0  0  0  0
 12 35  1  0  0  0  0
 12 36  1  0  0  0  0
 13 37  1  0  0  0  0
 13 38  1  0  0  0  0
 14 15  1  0  0  0  0
 14 39  1  0  0  0  0
 14 40  1  0  0  0  0
 15 19  1  0  0  0  0
 15 16  2  0  0  0  0
 16 17  1  0  0  0  0
 17 18  2  0  0  0  0
 18 19  1  0  0  0  0
 18 20  1  0  0  0  0
 20 22  1  0  0  0  0
 20 21  1  0  0  0  0
 20 41  1  0  0  0  0
 21 42  1  0  0  0  0
 21 43  1  0  0  0  0
 21 44  1  0  0  0  0
 22 45  1  0  0  0  0
 22 46  1  0  0  0  0
 22 47  1  0  0  0  0
M  END
$$$$