25685374 25685373
 OpenBabel01161410153D

 72 74  0  0  1  0  0  0  0  0999 V2000
    6.5728   -0.9167   -0.9693 C   0  0  0  0  0  0  0  0  0  0  0  0
    5.1617   -0.5008   -0.5276 C   0  0  0  0  0  0  0  0  0  0  0  0
    5.2417    0.6264    0.5276 C   0  0  1  0  0  0  0  0  0  0  0  0
    5.8908    0.2832    1.3424 H   0  0  0  0  0  0  0  0  0  0  0  0
    5.8129    1.9513   -0.0009 C   0  0  0  0  0  0  0  0  0  0  0  0
    5.4575    3.0385    1.0029 C   0  0  0  0  0  0  0  0  0  0  0  0
    3.9469    2.9190    1.2765 C   0  0  1  0  0  0  0  0  0  0  0  0
    3.4445    3.2688    0.3629 H   0  0  0  0  0  0  0  0  0  0  0  0
    3.5664    1.0758    1.2917 P   0  0  3  0  0  0  0  0  0  0  0  0
    3.7496    0.4361    3.0208 C   0  0  0  0  0  0  0  0  0  0  0  0
    4.7958    0.9439    3.8243 C   0  0  0  0  0  0  0  0  0  0  0  0
    5.0083    0.5129    5.1307 C   0  0  0  0  0  0  0  0  0  0  0  0
    4.1929   -0.4594    5.6697 C   0  0  0  0  0  0  0  0  0  0  0  0
    3.1643   -0.9987    4.8977 C   0  0  0  0  0  0  0  0  0  0  0  0
    2.9037   -0.5780    3.5755 C   0  0  0  0  0  0  0  0  0  0  0  0
    1.5316   -1.3696    2.6183 P   0  0  3  0  0  0  0  0  0  0  0  0
    1.4920   -3.1915    3.0467 C   0  0  2  0  0  0  0  0  0  0  0  0
    1.0663   -3.6436    2.1384 H   0  0  0  0  0  0  0  0  0  0  0  0
    0.4098   -3.3762    4.1352 C   0  0  0  0  0  0  0  0  0  0  0  0
   -0.0305   -2.0408    4.7266 C   0  0  0  0  0  0  0  0  0  0  0  0
   -0.0214   -0.9702    3.6257 C   0  0  2  0  0  0  0  0  0  0  0  0
    0.0826    0.0272    4.0691 H   0  0  0  0  0  0  0  0  0  0  0  0
   -1.3198   -1.0048    2.7614 C   0  0  0  0  0  0  0  0  0  0  0  0
   -2.5748   -0.7490    3.6157 C   0  0  0  0  0  0  0  0  0  0  0  0
   -1.3048    0.0392    1.6367 C   0  0  0  0  0  0  0  0  0  0  0  0
    2.8334   -3.9272    3.2863 C   0  0  0  0  0  0  0  0  0  0  0  0
    2.6279   -5.4166    3.6107 C   0  0  0  0  0  0  0  0  0  0  0  0
    3.7718   -3.8365    2.0740 C   0  0  0  0  0  0  0  0  0  0  0  0
    3.4337    3.7910    2.4391 C   0  0  0  0  0  0  0  0  0  0  0  0
    3.8820    5.2530    2.2744 C   0  0  0  0  0  0  0  0  0  0  0  0
    1.9048    3.7617    2.5501 C   0  0  0  0  0  0  0  0  0  0  0  0
    4.3344   -0.1664   -1.7772 C   0  0  0  0  0  0  0  0  0  0  0  0
    6.5303   -1.7862   -1.6338 H   0  0  0  0  0  0  0  0  0  0  0  0
    7.1898   -1.1862   -0.1069 H   0  0  0  0  0  0  0  0  0  0  0  0
    7.0789   -0.1109   -1.5118 H   0  0  0  0  0  0  0  0  0  0  0  0
    4.6975   -1.3768   -0.0567 H   0  0  0  0  0  0  0  0  0  0  0  0
    5.3922    2.2230   -0.9753 H   0  0  0  0  0  0  0  0  0  0  0  0
    6.8998    1.8877   -0.1260 H   0  0  0  0  0  0  0  0  0  0  0  0
    6.0580    2.9317    1.9106 H   0  0  0  0  0  0  0  0  0  0  0  0
    5.7047    4.0190    0.5793 H   0  0  0  0  0  0  0  0  0  0  0  0
    5.4791    1.6913    3.4465 H   0  0  0  0  0  0  0  0  0  0  0  0
    5.8247    0.9350    5.7193 H   0  0  0  0  0  0  0  0  0  0  0  0
    4.3576   -0.8176    6.6823 H   0  0  0  0  0  0  0  0  0  0  0  0
    2.5960   -1.7928    5.3611 H   0  0  0  0  0  0  0  0  0  0  0  0
   -0.4621   -3.8669    3.6807 H   0  0  0  0  0  0  0  0  0  0  0  0
    0.7301   -4.0337    4.9485 H   0  0  0  0  0  0  0  0  0  0  0  0
   -1.0041   -2.1541    5.2101 H   0  0  0  0  0  0  0  0  0  0  0  0
    0.6273   -1.7511    5.5487 H   0  0  0  0  0  0  0  0  0  0  0  0
   -1.4318   -1.9923    2.2958 H   0  0  0  0  0  0  0  0  0  0  0  0
   -2.4760    0.1736    4.1976 H   0  0  0  0  0  0  0  0  0  0  0  0
   -2.7764   -1.5711    4.3070 H   0  0  0  0  0  0  0  0  0  0  0  0
   -3.4678   -0.6542    2.9853 H   0  0  0  0  0  0  0  0  0  0  0  0
   -1.1299    1.0459    2.0317 H   0  0  0  0  0  0  0  0  0  0  0  0
   -2.2645    0.0491    1.1054 H   0  0  0  0  0  0  0  0  0  0  0  0
   -0.5358   -0.1784    0.8898 H   0  0  0  0  0  0  0  0  0  0  0  0
    3.3599   -3.4969    4.1416 H   0  0  0  0  0  0  0  0  0  0  0  0
    2.0206   -5.9112    2.8461 H   0  0  0  0  0  0  0  0  0  0  0  0
    2.1430   -5.5583    4.5802 H   0  0  0  0  0  0  0  0  0  0  0  0
    3.5905   -5.9385    3.6676 H   0  0  0  0  0  0  0  0  0  0  0  0
    3.3138   -4.2822    1.1843 H   0  0  0  0  0  0  0  0  0  0  0  0
    4.7087   -4.3707    2.2711 H   0  0  0  0  0  0  0  0  0  0  0  0
    4.0409   -2.8036    1.8411 H   0  0  0  0  0  0  0  0  0  0  0  0
    3.8439    3.4411    3.3918 H   0  0  0  0  0  0  0  0  0  0  0  0
    3.5709    5.6573    1.3051 H   0  0  0  0  0  0  0  0  0  0  0  0
    4.9703    5.3479    2.3509 H   0  0  0  0  0  0  0  0  0  0  0  0
    3.4525    5.8876    3.0579 H   0  0  0  0  0  0  0  0  0  0  0  0
    1.4339    4.0584    1.6068 H   0  0  0  0  0  0  0  0  0  0  0  0
    1.5597    4.4518    3.3279 H   0  0  0  0  0  0  0  0  0  0  0  0
    1.5401    2.7664    2.8185 H   0  0  0  0  0  0  0  0  0  0  0  0
    4.7738    0.6516   -2.3558 H   0  0  0  0  0  0  0  0  0  0  0  0
    3.3063    0.1055   -1.5246 H   0  0  0  0  0  0  0  0  0  0  0  0
    4.2839   -1.0366   -2.4411 H   0  0  0  0  0  0  0  0  0  0  0  0
  1  2  1  0  0  0  0
  1 33  1  0  0  0  0
  1 34  1  0  0  0  0
  1 35  1  0  0  0  0
  2 32  1  0  0  0  0
  2  3  1  0  0  0  0
  2 36  1  0  0  0  0
  3  9  1  0  0  0  0
  3  5  1  0  0  0  0
  3  4  1  1  0  0  0
  5  6  1  0  0  0  0
  5 37  1  0  0  0  0
  5 38  1  0  0  0  0
  6  7  1  0  0  0  0
  6 39  1  0  0  0  0
  6 40  1  0  0  0  0
  7  9  1  0  0  0  0
  7 29  1  0  0  0  0
  7  8  1  6  0  0  0
  9 10  1  0  0  0  0
 10 11  2  0  0  0  0
 10 15  1  0  0  0  0
 11 12  1  0  0  0  0
 11 41  1  0  0  0  0
 12 13  2  0  0  0  0
 12 42  1  0  0  0  0
 13 14  1  0  0  0  0
 13 43  1  0  0  0  0
 14 15  2  0  0  0  0
 14 44  1  0  0  0  0
 15 16  1  0  0  0  0
 16 21  1  0  0  0  0
 16 17  1  0  0  0  0
 17 19  1  0  0  0  0
 17 26  1  0  0  0  0
 17 18  1  6  0  0  0
 19 20  1  0  0  0  0
 19 45  1  0  0  0  0
 19 46  1  0  0  0  0
 20 21  1  0  0  0  0
 20 47  1  0  0  0  0
 20 48  1  0  0  0  0
 21 23  1  0  0  0  0
 21 22  1  1  0  0  0
 23 25  1  0  0  0  0
 23 24  1  0  0  0  0
 23 49  1  0  0  0  0
 24 50  1  0  0  0  0
 24 51  1  0  0  0  0
 24 52  1  0  0  0  0
 25 53  1  0  0  0  0
 25 54  1  0  0  0  0
 25 55  1  0  0  0  0
 26 28  1  0  0  0  0
 26 27  1  0  0  0  0
 26 56  1  0  0  0  0
 27 57  1  0  0  0  0
 27 58  1  0  0  0  0
 27 59  1  0  0  0  0
 28 60  1  0  0  0  0
 28 61  1  0  0  0  0
 28 62  1  0  0  0  0
 29 31  1  0  0  0  0
 29 30  1  0  0  0  0
 29 63  1  0  0  0  0
 30 64  1  0  0  0  0
 30 65  1  0  0  0  0
 30 66  1  0  0  0  0
 31 67  1  0  0  0  0
 31 68  1  0  0  0  0
 31 69  1  0  0  0  0
 32 70  1  0  0  0  0
 32 71  1  0  0  0  0
 32 72  1  0  0  0  0
M  END
$$$$