735170 735169
 OpenBabel01161410553D

 28 29  0  0  0  0  0  0  0  0999 V2000
    1.2972   -0.9885   -0.8336 S   0  0  0  0  0  0  0  0  0  0  0  0
    0.1691   -0.9713    0.6018 C   0  0  0  0  0  0  0  0  0  0  0  0
    0.2789   -2.1892    1.4788 C   0  0  0  0  0  0  0  0  0  0  0  0
    1.0232   -2.1512    2.6628 C   0  0  0  0  0  0  0  0  0  0  0  0
    1.1328   -3.3070    3.4181 C   0  0  0  0  0  0  0  0  0  0  0  0
    0.5565   -4.4798    3.0816 N   0  0  0  0  0  0  0  0  0  0  0  0
   -0.1732   -4.4935    1.9457 C   0  0  0  0  0  0  0  0  0  0  0  0
   -0.3380   -3.3921    1.1208 C   0  0  0  0  0  0  0  0  0  0  0  0
    3.1746   -0.9269    0.0154 S   0  0  0  0  0  0  0  0  0  0  0  0
    3.6454   -2.6915    0.0638 C   0  0  0  0  0  0  0  0  0  0  0  0
    4.9347   -2.9271    0.8132 C   0  0  0  0  0  0  0  0  0  0  0  0
    6.1359   -2.3386    0.4010 C   0  0  0  0  0  0  0  0  0  0  0  0
    7.2948   -2.6156    1.1096 C   0  0  0  0  0  0  0  0  0  0  0  0
    7.3437   -3.4381    2.1780 N   0  0  0  0  0  0  0  0  0  0  0  0
    6.1798   -4.0079    2.5550 C   0  0  0  0  0  0  0  0  0  0  0  0
    4.9682   -3.7872    1.9162 C   0  0  0  0  0  0  0  0  0  0  0  0
   -0.8554   -0.8998    0.2177 H   0  0  0  0  0  0  0  0  0  0  0  0
    0.3363   -0.0546    1.1788 H   0  0  0  0  0  0  0  0  0  0  0  0
    1.5272   -1.2451    2.9854 H   0  0  0  0  0  0  0  0  0  0  0  0
    1.7114   -3.3209    4.3373 H   0  0  0  0  0  0  0  0  0  0  0  0
   -0.6377   -5.4460    1.7059 H   0  0  0  0  0  0  0  0  0  0  0  0
   -0.9315   -3.4765    0.2159 H   0  0  0  0  0  0  0  0  0  0  0  0
    3.7639   -3.0605   -0.9612 H   0  0  0  0  0  0  0  0  0  0  0  0
    2.8403   -3.2668    0.5299 H   0  0  0  0  0  0  0  0  0  0  0  0
    6.1756   -1.6729   -0.4552 H   0  0  0  0  0  0  0  0  0  0  0  0
    8.2439   -2.1710    0.8235 H   0  0  0  0  0  0  0  0  0  0  0  0
    6.2476   -4.6742    3.4105 H   0  0  0  0  0  0  0  0  0  0  0  0
    4.0742   -4.2897    2.2733 H   0  0  0  0  0  0  0  0  0  0  0  0
  1  9  1  0  0  0  0
  1  2  1  0  0  0  0
  2  3  1  0  0  0  0
  2 17  1  0  0  0  0
  2 18  1  0  0  0  0
  3  4  2  0  0  0  0
  3  8  1  0  0  0  0
  4  5  1  0  0  0  0
  4 19  1  0  0  0  0
  5  6  2  0  0  0  0
  5 20  1  0  0  0  0
  6  7  1  0  0  0  0
  7  8  2  0  0  0  0
  7 21  1  0  0  0  0
  8 22  1  0  0  0  0
  9 10  1  0  0  0  0
 10 11  1  0  0  0  0
 10 23  1  0  0  0  0
 10 24  1  0  0  0  0
 11 12  2  0  0  0  0
 11 16  1  0  0  0  0
 12 13  1  0  0  0  0
 12 25  1  0  0  0  0
 13 14  2  0  0  0  0
 13 26  1  0  0  0  0
 14 15  1  0  0  0  0
 15 16  2  0  0  0  0
 15 27  1  0  0  0  0
 16 28  1  0  0  0  0
M  END
$$$$