1941763 1941762
 OpenBabel01161410533D

 38 38  0  0  0  0  0  0  0  0999 V2000
    3.6919   -3.3238   -1.9525 F   0  0  0  0  0  0  0  0  0  0  0  0
    3.2226   -2.4422   -1.0544 C   0  0  0  0  0  0  0  0  0  0  0  0
    3.8497   -1.1964   -0.9786 C   0  0  0  0  0  0  0  0  0  0  0  0
    4.9277   -0.9433   -1.7318 F   0  0  0  0  0  0  0  0  0  0  0  0
    3.3598   -0.2216   -0.1247 C   0  0  0  0  0  0  0  0  0  0  0  0
    3.9573    0.9765   -0.0568 F   0  0  0  0  0  0  0  0  0  0  0  0
    2.2534   -0.4928    0.6570 C   0  0  0  0  0  0  0  0  0  0  0  0
    1.6490   -1.7505    0.6159 C   0  0  0  0  0  0  0  0  0  0  0  0
    2.1183   -2.7731   -0.2415 C   0  0  0  0  0  0  0  0  0  0  0  0
    1.5055   -4.1024   -0.2752 N   0  0  0  0  0  0  0  0  0  0  0  0
    2.4227   -5.5864   -0.1106 Si  0  0  0  0  0  0  0  0  0  0  0  0
    1.8012   -6.6278    1.3101 C   0  0  0  0  0  0  0  0  0  0  0  0
    2.5239   -6.4827   -1.7427 C   0  0  0  0  0  0  0  0  0  0  0  0
    4.2154   -5.1956    0.3882 C   0  0  0  0  0  0  0  0  0  0  0  0
   -0.2031   -4.3531   -0.6220 Si  0  0  0  0  0  0  0  0  0  0  0  0
   -0.8055   -6.0650   -1.0837 C   0  0  0  0  0  0  0  0  0  0  0  0
   -1.2433   -3.8094    0.8380 C   0  0  0  0  0  0  0  0  0  0  0  0
   -0.5919   -3.2700   -2.1183 C   0  0  0  0  0  0  0  0  0  0  0  0
    0.6366   -1.9720    1.4614 F   0  0  0  0  0  0  0  0  0  0  0  0
    1.7661    0.4521    1.4754 F   0  0  0  0  0  0  0  0  0  0  0  0
    2.0323   -6.1388    2.2619 H   0  0  0  0  0  0  0  0  0  0  0  0
    2.3082   -7.5984    1.3081 H   0  0  0  0  0  0  0  0  0  0  0  0
    0.7287   -6.8184    1.2960 H   0  0  0  0  0  0  0  0  0  0  0  0
    2.6492   -5.7789   -2.5719 H   0  0  0  0  0  0  0  0  0  0  0  0
    1.6446   -7.0961   -1.9448 H   0  0  0  0  0  0  0  0  0  0  0  0
    3.3857   -7.1578   -1.7530 H   0  0  0  0  0  0  0  0  0  0  0  0
    4.7783   -4.7334   -0.4254 H   0  0  0  0  0  0  0  0  0  0  0  0
    4.7249   -6.1321    0.6395 H   0  0  0  0  0  0  0  0  0  0  0  0
    4.2450   -4.5454    1.2663 H   0  0  0  0  0  0  0  0  0  0  0  0
   -0.3963   -6.4022   -2.0379 H   0  0  0  0  0  0  0  0  0  0  0  0
   -1.8942   -6.0336   -1.2082 H   0  0  0  0  0  0  0  0  0  0  0  0
   -0.6101   -6.8212   -0.3223 H   0  0  0  0  0  0  0  0  0  0  0  0
   -1.4566   -2.7374    0.7943 H   0  0  0  0  0  0  0  0  0  0  0  0
   -0.7501   -4.0355    1.7877 H   0  0  0  0  0  0  0  0  0  0  0  0
   -2.2081   -4.3269    0.8329 H   0  0  0  0  0  0  0  0  0  0  0  0
   -0.3108   -2.2279   -1.9481 H   0  0  0  0  0  0  0  0  0  0  0  0
   -1.6642   -3.3048   -2.3349 H   0  0  0  0  0  0  0  0  0  0  0  0
   -0.0561   -3.6383   -2.9987 H   0  0  0  0  0  0  0  0  0  0  0  0
  1  2  1  0  0  0  0
  2  9  1  0  0  0  0
  2  3  2  0  0  0  0
  3  5  1  0  0  0  0
  3  4  1  0  0  0  0
  5  7  2  0  0  0  0
  5  6  1  0  0  0  0
  7  8  1  0  0  0  0
  7 20  1  0  0  0  0
  8  9  2  0  0  0  0
  8 19  1  0  0  0  0
  9 10  1  0  0  0  0
 10 15  1  0  0  0  0
 10 11  1  0  0  0  0
 11 14  1  0  0  0  0
 11 13  1  0  0  0  0
 11 12  1  0  0  0  0
 12 21  1  0  0  0  0
 12 22  1  0  0  0  0
 12 23  1  0  0  0  0
 13 24  1  0  0  0  0
 13 25  1  0  0  0  0
 13 26  1  0  0  0  0
 14 27  1  0  0  0  0
 14 28  1  0  0  0  0
 14 29  1  0  0  0  0
 15 18  1  0  0  0  0
 15 17  1  0  0  0  0
 15 16  1  0  0  0  0
 16 30  1  0  0  0  0
 16 31  1  0  0  0  0
 16 32  1  0  0  0  0
 17 33  1  0  0  0  0
 17 34  1  0  0  0  0
 17 35  1  0  0  0  0
 18 36  1  0  0  0  0
 18 37  1  0  0  0  0
 18 38  1  0  0  0  0
M  END
$$$$