36812424 36812423
 OpenBabel01161410583D

 16 16  0  0  0  0  0  0  0  0999 V2000
    1.3067   -0.1906   -0.2840 F   0  0  0  0  0  0  0  0  0  0  0  0
    2.4947    0.2007    0.2469 C   0  0  0  0  0  0  0  0  0  0  0  0
    3.0904    1.4623   -0.5324 C   0  0  0  0  0  0  0  0  0  0  0  0
    3.2758    1.2653   -1.9665 N   0  0  0  0  0  0  0  0  0  0  0  0
    2.1876    2.5811   -0.3961 O   0  0  0  0  0  0  0  0  0  0  0  0
    2.9539    3.6344    0.1856 C   0  0  0  0  0  0  0  0  0  0  0  0
    4.0724    2.9272    0.8947 C   0  0  0  0  0  0  0  0  0  0  0  0
    4.3662    1.8455    0.0154 O   0  0  0  0  0  0  0  0  0  0  0  0
    2.2693    0.4869    1.5558 F   0  0  0  0  0  0  0  0  0  0  0  0
    3.3234   -0.8705    0.2087 F   0  0  0  0  0  0  0  0  0  0  0  0
    3.6635    2.1344   -2.3207 H   0  0  0  0  0  0  0  0  0  0  0  0
    2.3428    1.1889   -2.3670 H   0  0  0  0  0  0  0  0  0  0  0  0
    3.3321    4.2611   -0.6285 H   0  0  0  0  0  0  0  0  0  0  0  0
    2.3355    4.2429    0.8490 H   0  0  0  0  0  0  0  0  0  0  0  0
    4.9550    3.5548    1.0462 H   0  0  0  0  0  0  0  0  0  0  0  0
    3.7524    2.5183    1.8594 H   0  0  0  0  0  0  0  0  0  0  0  0
  1  2  1  0  0  0  0
  2 10  1  0  0  0  0
  2  9  1  0  0  0  0
  2  3  1  0  0  0  0
  3  8  1  0  0  0  0
  3  5  1  0  0  0  0
  3  4  1  0  0  0  0
  4 11  1  0  0  0  0
  4 12  1  0  0  0  0
  5  6  1  0  0  0  0
  6  7  1  0  0  0  0
  6 13  1  0  0  0  0
  6 14  1  0  0  0  0
  7  8  1  0  0  0  0
  7 15  1  0  0  0  0
  7 16  1  0  0  0  0
M  END
$$$$