44462212 44462211
 OpenBabel01161409563D

 21 22  0  0  0  0  0  0  0  0999 V2000
    0.9385    0.0256   -0.0864 C   0  0  0  0  0  0  0  0  0  0  0  0
    2.4365    0.0733   -0.0319 C   0  0  0  0  0  0  0  0  0  0  0  0
    3.1214    1.2868   -0.0495 C   0  0  0  0  0  0  0  0  0  0  0  0
    4.5169    1.3002    0.0109 C   0  0  0  0  0  0  0  0  0  0  0  0
    5.2493    0.1240    0.0943 C   0  0  0  0  0  0  0  0  0  0  0  0
    4.5629   -1.1116    0.1253 C   0  0  0  0  0  0  0  0  0  0  0  0
    3.1735   -1.1146    0.0640 C   0  0  0  0  0  0  0  0  0  0  0  0
    5.2260   -2.2795    0.2083 N   0  0  0  0  0  0  0  0  0  0  0  0
    6.5799   -2.2200    0.2541 C   0  0  0  0  0  0  0  0  0  0  0  0
    7.2609   -0.9970    0.2268 C   0  0  0  0  0  0  0  0  0  0  0  0
    6.5934    0.1803    0.1431 N   0  0  0  0  0  0  0  0  0  0  0  0
    9.0351   -0.8389    0.2712 S   0  0  0  0  0  0  0  0  0  0  0  0
    7.3866   -3.8055    0.3534 S   0  0  0  0  0  0  0  0  0  0  0  0
    0.5150    1.0092   -0.3146 H   0  0  0  0  0  0  0  0  0  0  0  0
    0.5378   -0.3045    0.8770 H   0  0  0  0  0  0  0  0  0  0  0  0
    0.6091   -0.6652   -0.8694 H   0  0  0  0  0  0  0  0  0  0  0  0
    2.5826    2.2296   -0.1126 H   0  0  0  0  0  0  0  0  0  0  0  0
    5.0458    2.2504   -0.0080 H   0  0  0  0  0  0  0  0  0  0  0  0
    2.6571   -2.0724    0.0889 H   0  0  0  0  0  0  0  0  0  0  0  0
    9.2757   -2.0630    0.7641 H   0  0  0  0  0  0  0  0  0  0  0  0
    8.1621   -3.6259   -0.7247 H   0  0  0  0  0  0  0  0  0  0  0  0
  1  2  1  0  0  0  0
  1 14  1  0  0  0  0
  1 15  1  0  0  0  0
  1 16  1  0  0  0  0
  2  3  2  0  0  0  0
  2  7  1  0  0  0  0
  3  4  1  0  0  0  0
  3 17  1  0  0  0  0
  4  5  2  0  0  0  0
  4 18  1  0  0  0  0
  5 11  1  0  0  0  0
  5  6  1  0  0  0  0
  6  7  2  0  0  0  0
  6  8  1  0  0  0  0
  7 19  1  0  0  0  0
  8  9  2  0  0  0  0
  9 10  1  0  0  0  0
  9 13  1  0  0  0  0
 10 11  2  0  0  0  0
 10 12  1  0  0  0  0
 12 20  1  0  0  0  0
 13 21  1  0  0  0  0
M  END
$$$$