18594477 18594476
 OpenBabel01161410533D

 17 16  0  0  0  0  0  0  0  0999 V2000
    1.0117    0.0183    0.1369 C   0  0  0  0  0  0  0  0  0  0  0  0
    2.5286   -0.0682    0.0318 C   0  0  0  0  0  0  0  0  0  0  0  0
    3.1918   -1.5285   -0.9605 Si  0  0  0  0  0  0  0  0  0  0  0  0
    2.6855   -2.7791   -0.3399 H   0  0  0  0  0  0  0  0  0  0  0  0
    2.5931   -1.4539   -2.7209 C   0  0  0  0  0  0  0  0  0  0  0  0
    5.0523   -1.5519   -0.8988 C   0  0  0  0  0  0  0  0  0  0  0  0
    0.7254    0.8852    0.7410 H   0  0  0  0  0  0  0  0  0  0  0  0
    0.5931   -0.8757    0.6104 H   0  0  0  0  0  0  0  0  0  0  0  0
    0.5483    0.1283   -0.8488 H   0  0  0  0  0  0  0  0  0  0  0  0
    2.9494   -0.1231    1.0434 H   0  0  0  0  0  0  0  0  0  0  0  0
    2.9077    0.8575   -0.4186 H   0  0  0  0  0  0  0  0  0  0  0  0
    2.9245   -0.5318   -3.2079 H   0  0  0  0  0  0  0  0  0  0  0  0
    1.5009   -1.4860   -2.7657 H   0  0  0  0  0  0  0  0  0  0  0  0
    2.9783   -2.2987   -3.2994 H   0  0  0  0  0  0  0  0  0  0  0  0
    5.4700   -0.6428   -1.3427 H   0  0  0  0  0  0  0  0  0  0  0  0
    5.4502   -2.4102   -1.4485 H   0  0  0  0  0  0  0  0  0  0  0  0
    5.4076   -1.6180    0.1336 H   0  0  0  0  0  0  0  0  0  0  0  0
  1  2  1  0  0  0  0
  1  7  1  0  0  0  0
  1  8  1  0  0  0  0
  1  9  1  0  0  0  0
  2  3  1  0  0  0  0
  2 10  1  0  0  0  0
  2 11  1  0  0  0  0
  3  6  1  0  0  0  0
  3  5  1  0  0  0  0
  3  4  1  0  0  0  0
  5 12  1  0  0  0  0
  5 13  1  0  0  0  0
  5 14  1  0  0  0  0
  6 15  1  0  0  0  0
  6 16  1  0  0  0  0
  6 17  1  0  0  0  0
M  END
$$$$