2872987 2872986
 OpenBabel01161410483D

 27 26  0  0  1  0  0  0  0  0999 V2000
    2.4879   -1.1131    0.4110 N   0  0  0  0  0  0  0  0  0  0  0  0
    2.1407    0.2871    0.1597 C   0  0  0  0  0  0  0  0  0  0  0  0
    3.1730    1.0951   -0.6967 C   0  0  3  0  0  0  0  0  0  0  0  0
    2.5610    2.2612   -1.3973 N   0  0  0  0  0  0  0  0  0  0  0  0
    1.8182    1.8615   -2.5919 C   0  0  0  0  0  0  0  0  0  0  0  0
    1.7488    3.1282   -0.5479 C   0  0  0  0  0  0  0  0  0  0  0  0
    4.4345    1.5839    0.1001 C   0  0  0  0  0  0  0  0  0  0  0  0
    5.2169    0.4553    0.7773 C   0  0  0  0  0  0  0  0  0  0  0  0
    5.4080    2.3541   -0.8109 C   0  0  0  0  0  0  0  0  0  0  0  0
    1.6842   -1.5827    0.8282 H   0  0  0  0  0  0  0  0  0  0  0  0
    3.2259   -1.1750    1.1082 H   0  0  0  0  0  0  0  0  0  0  0  0
    1.9641    0.7936    1.1163 H   0  0  0  0  0  0  0  0  0  0  0  0
    1.1791    0.2590   -0.3632 H   0  0  0  0  0  0  0  0  0  0  0  0
    3.5552    0.4157   -1.4726 H   0  0  0  0  0  0  0  0  0  0  0  0
    2.4574    1.2890   -3.2736 H   0  0  0  0  0  0  0  0  0  0  0  0
    1.4902    2.7459   -3.1501 H   0  0  0  0  0  0  0  0  0  0  0  0
    0.9332    1.2607   -2.3601 H   0  0  0  0  0  0  0  0  0  0  0  0
    2.3030    3.4628    0.3341 H   0  0  0  0  0  0  0  0  0  0  0  0
    0.8242    2.6459   -0.2122 H   0  0  0  0  0  0  0  0  0  0  0  0
    1.4703    4.0366   -1.0946 H   0  0  0  0  0  0  0  0  0  0  0  0
    4.1162    2.2707    0.8941 H   0  0  0  0  0  0  0  0  0  0  0  0
    5.3902   -0.3813    0.0920 H   0  0  0  0  0  0  0  0  0  0  0  0
    4.6922    0.0909    1.6645 H   0  0  0  0  0  0  0  0  0  0  0  0
    6.1951    0.8057    1.1274 H   0  0  0  0  0  0  0  0  0  0  0  0
    5.7434    1.7304   -1.6468 H   0  0  0  0  0  0  0  0  0  0  0  0
    6.2944    2.6753   -0.2521 H   0  0  0  0  0  0  0  0  0  0  0  0
    4.9500    3.2602   -1.2210 H   0  0  0  0  0  0  0  0  0  0  0  0
  1  2  1  0  0  0  0
  1 10  1  0  0  0  0
  1 11  1  0  0  0  0
  2  3  1  0  0  0  0
  2 12  1  0  0  0  0
  2 13  1  0  0  0  0
  3  7  1  0  0  0  0
  3  4  1  0  0  0  0
  3 14  1  0  0  0  0
  4  6  1  0  0  0  0
  4  5  1  0  0  0  0
  5 15  1  0  0  0  0
  5 16  1  0  0  0  0
  5 17  1  0  0  0  0
  6 18  1  0  0  0  0
  6 19  1  0  0  0  0
  6 20  1  0  0  0  0
  7  9  1  0  0  0  0
  7  8  1  0  0  0  0
  7 21  1  0  0  0  0
  8 22  1  0  0  0  0
  8 23  1  0  0  0  0
  8 24  1  0  0  0  0
  9 25  1  0  0  0  0
  9 26  1  0  0  0  0
  9 27  1  0  0  0  0
M  END
$$$$