13177978 13177977
 OpenBabel01161410093D

 59 63  0  0  0  0  0  0  0  0999 V2000
    7.6075    0.8764    1.2970 C   0  0  0  0  0  0  0  0  0  0  0  0
    6.2902    1.1114    1.6841 C   0  0  0  0  0  0  0  0  0  0  0  0
    5.2916    0.1839    1.3717 C   0  0  0  0  0  0  0  0  0  0  0  0
    5.5947   -0.9916    0.6770 C   0  0  0  0  0  0  0  0  0  0  0  0
    6.9294   -1.2177    0.3071 C   0  0  0  0  0  0  0  0  0  0  0  0
    7.9294   -0.2902    0.6130 C   0  0  0  0  0  0  0  0  0  0  0  0
    4.6065   -1.8754    0.1679 N   0  0  0  0  0  0  0  0  0  0  0  0
    3.2047   -1.6692    0.1588 N   0  0  0  0  0  0  0  0  0  0  0  0
    2.2684   -3.1513    0.3163 Si  0  0  3  0  0  0  0  0  0  0  0  0
    2.3955   -4.2556   -1.2607 C   0  0  0  0  0  0  0  0  0  0  0  0
    3.5995   -4.3458   -1.9861 C   0  0  0  0  0  0  0  0  0  0  0  0
    3.7346   -5.2410   -3.0527 C   0  0  0  0  0  0  0  0  0  0  0  0
    2.6671   -6.0479   -3.4292 C   0  0  0  0  0  0  0  0  0  0  0  0
    1.4588   -5.9576   -2.7470 C   0  0  0  0  0  0  0  0  0  0  0  0
    1.3222   -5.0733   -1.6733 C   0  0  0  0  0  0  0  0  0  0  0  0
    3.0059   -4.3335    1.6445 C   0  0  0  0  0  0  0  0  0  0  0  0
    2.6856   -5.7074    1.6447 C   0  0  0  0  0  0  0  0  0  0  0  0
    3.2283   -6.5753    2.5974 C   0  0  0  0  0  0  0  0  0  0  0  0
    4.1014   -6.0885    3.5643 C   0  0  0  0  0  0  0  0  0  0  0  0
    4.4208   -4.7348    3.5917 C   0  0  0  0  0  0  0  0  0  0  0  0
    3.8695   -3.8582    2.6487 C   0  0  0  0  0  0  0  0  0  0  0  0
    0.4250   -3.0134    0.7163 C   0  0  0  0  0  0  0  0  0  0  0  0
   -0.4799   -2.4713   -0.2215 C   0  0  0  0  0  0  0  0  0  0  0  0
   -1.8549   -2.4289    0.0365 C   0  0  0  0  0  0  0  0  0  0  0  0
   -2.3610   -2.9396    1.2271 C   0  0  0  0  0  0  0  0  0  0  0  0
   -1.4904   -3.4770    2.1705 C   0  0  0  0  0  0  0  0  0  0  0  0
   -0.1152   -3.5058    1.9227 C   0  0  0  0  0  0  0  0  0  0  0  0
    2.7328   -0.4563   -0.4798 C   0  0  0  0  0  0  0  0  0  0  0  0
    1.5592    0.1862   -0.0586 C   0  0  0  0  0  0  0  0  0  0  0  0
    1.1585    1.4054   -0.6203 C   0  0  0  0  0  0  0  0  0  0  0  0
    1.9426    2.0233   -1.5930 C   0  0  0  0  0  0  0  0  0  0  0  0
    3.1171    1.4138   -2.0181 C   0  0  0  0  0  0  0  0  0  0  0  0
    3.4998    0.1838   -1.4759 C   0  0  0  0  0  0  0  0  0  0  0  0
    8.3786    1.6112    1.5166 H   0  0  0  0  0  0  0  0  0  0  0  0
    6.0306    2.0266    2.2063 H   0  0  0  0  0  0  0  0  0  0  0  0
    4.2661    0.4010    1.6602 H   0  0  0  0  0  0  0  0  0  0  0  0
    7.1940   -2.1013   -0.2689 H   0  0  0  0  0  0  0  0  0  0  0  0
    8.9532   -0.4708    0.2919 H   0  0  0  0  0  0  0  0  0  0  0  0
    4.9436   -2.8401    0.1681 H   0  0  0  0  0  0  0  0  0  0  0  0
    4.4616   -3.7380   -1.7316 H   0  0  0  0  0  0  0  0  0  0  0  0
    4.6811   -5.3100   -3.5825 H   0  0  0  0  0  0  0  0  0  0  0  0
    2.7782   -6.7496   -4.2521 H   0  0  0  0  0  0  0  0  0  0  0  0
    0.6213   -6.5866   -3.0396 H   0  0  0  0  0  0  0  0  0  0  0  0
    0.3680   -5.0612   -1.1498 H   0  0  0  0  0  0  0  0  0  0  0  0
    2.0054   -6.1273    0.9054 H   0  0  0  0  0  0  0  0  0  0  0  0
    2.9667   -7.6304    2.5769 H   0  0  0  0  0  0  0  0  0  0  0  0
    4.5284   -6.7638    4.2970 H   0  0  0  0  0  0  0  0  0  0  0  0
    5.0979   -4.3525    4.3500 H   0  0  0  0  0  0  0  0  0  0  0  0
    4.1306   -2.8030    2.7131 H   0  0  0  0  0  0  0  0  0  0  0  0
   -0.1257   -2.0816   -1.1756 H   0  0  0  0  0  0  0  0  0  0  0  0
   -2.5321   -2.0059   -0.7037 H   0  0  0  0  0  0  0  0  0  0  0  0
   -3.4295   -2.9201    1.4201 H   0  0  0  0  0  0  0  0  0  0  0  0
   -1.8815   -3.8829    3.0993 H   0  0  0  0  0  0  0  0  0  0  0  0
    0.5234   -3.9414    2.6924 H   0  0  0  0  0  0  0  0  0  0  0  0
    0.9597   -0.2227    0.7472 H   0  0  0  0  0  0  0  0  0  0  0  0
    0.2451    1.8853   -0.2757 H   0  0  0  0  0  0  0  0  0  0  0  0
    1.6444    2.9828   -2.0076 H   0  0  0  0  0  0  0  0  0  0  0  0
    3.7477    1.8959   -2.7562 H   0  0  0  0  0  0  0  0  0  0  0  0
    4.4269   -0.2658   -1.8223 H   0  0  0  0  0  0  0  0  0  0  0  0
  1  2  2  0  0  0  0
  1  6  1  0  0  0  0
  1 34  1  0  0  0  0
  2  3  1  0  0  0  0
  2 35  1  0  0  0  0
  3  4  2  0  0  0  0
  3 36  1  0  0  0  0
  4  5  1  0  0  0  0
  4  7  1  0  0  0  0
  5  6  2  0  0  0  0
  5 37  1  0  0  0  0
  6 38  1  0  0  0  0
  7  8  1  0  0  0  0
  7 39  1  0  0  0  0
  8 28  1  0  0  0  0
  8  9  1  0  0  0  0
  9 22  1  0  0  0  0
  9 16  1  0  0  0  0
  9 10  1  0  0  0  0
 10 11  2  0  0  0  0
 10 15  1  0  0  0  0
 11 12  1  0  0  0  0
 11 40  1  0  0  0  0
 12 13  2  0  0  0  0
 12 41  1  0  0  0  0
 13 14  1  0  0  0  0
 13 42  1  0  0  0  0
 14 15  2  0  0  0  0
 14 43  1  0  0  0  0
 15 44  1  0  0  0  0
 16 17  2  0  0  0  0
 16 21  1  0  0  0  0
 17 18  1  0  0  0  0
 17 45  1  0  0  0  0
 18 19  2  0  0  0  0
 18 46  1  0  0  0  0
 19 20  1  0  0  0  0
 19 47  1  0  0  0  0
 20 21  2  0  0  0  0
 20 48  1  0  0  0  0
 21 49  1  0  0  0  0
 22 23  2  0  0  0  0
 22 27  1  0  0  0  0
 23 24  1  0  0  0  0
 23 50  1  0  0  0  0
 24 25  2  0  0  0  0
 24 51  1  0  0  0  0
 25 26  1  0  0  0  0
 25 52  1  0  0  0  0
 26 27  2  0  0  0  0
 26 53  1  0  0  0  0
 27 54  1  0  0  0  0
 28 29  2  0  0  0  0
 28 33  1  0  0  0  0
 29 30  1  0  0  0  0
 29 55  1  0  0  0  0
 30 31  2  0  0  0  0
 30 56  1  0  0  0  0
 31 32  1  0  0  0  0
 31 57  1  0  0  0  0
 32 33  2  0  0  0  0
 32 58  1  0  0  0  0
 33 59  1  0  0  0  0
M  END
$$$$