37029858 37029857
 OpenBabel01161410553D

 24 25  0  0  1  0  0  0  0  0999 V2000
    0.8740   -0.1366    0.4940 C   0  0  0  0  0  0  0  0  0  0  0  0
    2.3132    0.0118    0.0472 C   0  0  3  0  0  0  0  0  0  0  0  0
    3.1154    1.1650    0.6811 C   0  0  0  0  0  0  0  0  0  0  0  0
    4.3001    0.2775    0.6935 N   0  0  0  0  0  0  0  0  0  0  0  0
    3.3768   -0.8999    0.7271 C   0  0  3  0  0  0  0  0  0  0  0  0
    3.9780   -2.1337   -0.0668 C   0  0  0  0  0  0  0  0  0  0  0  0
    5.3442   -2.4845   -0.0051 C   0  0  0  0  0  0  0  0  0  0  0  0
    5.8672   -3.5792   -0.7007 C   0  0  0  0  0  0  0  0  0  0  0  0
    5.0307   -4.3741   -1.4743 C   0  0  0  0  0  0  0  0  0  0  0  0
    3.6752   -4.0750   -1.5482 C   0  0  0  0  0  0  0  0  0  0  0  0
    3.1633   -2.9740   -0.8535 C   0  0  0  0  0  0  0  0  0  0  0  0
    0.4472   -1.0717    0.1174 H   0  0  0  0  0  0  0  0  0  0  0  0
    0.2652    0.6879    0.1081 H   0  0  0  0  0  0  0  0  0  0  0  0
    0.7854   -0.1402    1.5856 H   0  0  0  0  0  0  0  0  0  0  0  0
    2.3831    0.0164   -1.0505 H   0  0  0  0  0  0  0  0  0  0  0  0
    2.7898    1.4650    1.6846 H   0  0  0  0  0  0  0  0  0  0  0  0
    3.2218    2.0630    0.0659 H   0  0  0  0  0  0  0  0  0  0  0  0
    4.8362    0.3239   -0.1743 H   0  0  0  0  0  0  0  0  0  0  0  0
    3.1108   -1.1826    1.7566 H   0  0  0  0  0  0  0  0  0  0  0  0
    6.0163   -1.8850    0.6076 H   0  0  0  0  0  0  0  0  0  0  0  0
    6.9271   -3.8087   -0.6299 H   0  0  0  0  0  0  0  0  0  0  0  0
    5.4324   -5.2282   -2.0126 H   0  0  0  0  0  0  0  0  0  0  0  0
    3.0121   -4.6975   -2.1427 H   0  0  0  0  0  0  0  0  0  0  0  0
    2.0968   -2.7687   -0.9233 H   0  0  0  0  0  0  0  0  0  0  0  0
  1  2  1  0  0  0  0
  1 12  1  0  0  0  0
  1 13  1  0  0  0  0
  1 14  1  0  0  0  0
  2  5  1  0  0  0  0
  2  3  1  0  0  0  0
  2 15  1  0  0  0  0
  3  4  1  0  0  0  0
  3 16  1  0  0  0  0
  3 17  1  0  0  0  0
  4  5  1  0  0  0  0
  4 18  1  0  0  0  0
  5  6  1  0  0  0  0
  5 19  1  0  0  0  0
  6  7  2  0  0  0  0
  6 11  1  0  0  0  0
  7  8  1  0  0  0  0
  7 20  1  0  0  0  0
  8  9  2  0  0  0  0
  8 21  1  0  0  0  0
  9 10  1  0  0  0  0
  9 22  1  0  0  0  0
 10 11  2  0  0  0  0
 10 23  1  0  0  0  0
 11 24  1  0  0  0  0
M  END
$$$$