535708 535707
 OpenBabel01161410413D

 17 18  0  0  1  0  0  0  0  0999 V2000
   -1.5484    0.7810   -0.0505 C   0  0  0  0  0  0  0  0  0  0  0  0
   -1.5488   -0.7792    0.0626 C   0  0  0  0  0  0  0  0  0  0  0  0
   -0.2013   -1.3906    0.5571 C   0  0  0  0  0  0  0  0  0  0  0  0
    0.8391   -0.7176   -0.2444 C   0  0  3  0  0  0  0  0  0  0  0  0
    0.8409    0.7178    0.2431 C   0  0  3  0  0  0  0  0  0  0  0  0
   -0.2036    1.3915   -0.5527 C   0  0  0  0  0  0  0  0  0  0  0  0
    2.3455   -0.0005   -0.0048 S   0  0  0  0  0  0  0  0  0  0  0  0
   -2.3716    1.1086   -0.6953 H   0  0  0  0  0  0  0  0  0  0  0  0
   -1.7534    1.1823    0.9511 H   0  0  0  0  0  0  0  0  0  0  0  0
   -1.7596   -1.1803   -0.9378 H   0  0  0  0  0  0  0  0  0  0  0  0
   -2.3684   -1.1061    0.7121 H   0  0  0  0  0  0  0  0  0  0  0  0
   -0.0838   -1.2328    1.6358 H   0  0  0  0  0  0  0  0  0  0  0  0
   -0.1973   -2.4710    0.3788 H   0  0  0  0  0  0  0  0  0  0  0  0
    0.6937   -0.9550   -1.2945 H   0  0  0  0  0  0  0  0  0  0  0  0
    0.7016    0.9552    1.2938 H   0  0  0  0  0  0  0  0  0  0  0  0
   -0.1976    2.4719   -0.3743 H   0  0  0  0  0  0  0  0  0  0  0  0
   -0.0920    1.2334   -1.6316 H   0  0  0  0  0  0  0  0  0  0  0  0
  1  6  1  0  0  0  0
  1  2  1  0  0  0  0
  1  8  1  0  0  0  0
  1  9  1  0  0  0  0
  2  3  1  0  0  0  0
  2 10  1  0  0  0  0
  2 11  1  0  0  0  0
  3  4  1  0  0  0  0
  3 12  1  0  0  0  0
  3 13  1  0  0  0  0
  4  5  1  0  0  0  0
  4  7  1  0  0  0  0
  4 14  1  0  0  0  0
  5  6  1  0  0  0  0
  5  7  1  0  0  0  0
  5 15  1  0  0  0  0
  6 16  1  0  0  0  0
  6 17  1  0  0  0  0
M  END
$$$$