13179293 13179292
 OpenBabel01161410113D

 55 58  0  0  0  0  0  0  0  0999 V2000
    1.2459   -1.1725    3.1246 C   0  0  0  0  0  0  0  0  0  0  0  0
    1.9470   -1.1787    1.7570 C   0  0  0  0  0  0  0  0  0  0  0  0
    1.0984   -1.7778    0.6266 C   0  0  0  0  0  0  0  0  0  0  0  0
   -0.5897   -0.9314    0.4296 Si  0  0  0  0  0  0  0  0  0  0  0  0
   -1.1384   -0.7813    2.2538 C   0  0  0  0  0  0  0  0  0  0  0  0
   -0.0111   -0.2913    3.1721 C   0  0  0  0  0  0  0  0  0  0  0  0
   -1.6691   -1.7805   -0.4966 O   0  0  0  0  0  0  0  0  0  0  0  0
   -1.9503   -2.3550   -2.0262 Si  0  0  0  0  0  0  0  0  0  0  0  0
   -2.0643   -1.0087   -3.3639 C   0  0  0  0  0  0  0  0  0  0  0  0
   -0.7183   -0.6252   -3.9877 C   0  0  0  0  0  0  0  0  0  0  0  0
    0.0879   -1.8220   -4.5089 C   0  0  0  0  0  0  0  0  0  0  0  0
    0.5635   -2.7554   -3.3876 C   0  0  0  0  0  0  0  0  0  0  0  0
   -0.5777   -3.4961   -2.6823 C   0  0  0  0  0  0  0  0  0  0  0  0
   -3.5974   -3.3010   -1.9359 C   0  0  0  0  0  0  0  0  0  0  0  0
   -4.8207   -2.6261   -2.0981 C   0  0  0  0  0  0  0  0  0  0  0  0
   -6.0294   -3.3260   -2.0775 C   0  0  0  0  0  0  0  0  0  0  0  0
   -6.0364   -4.7057   -1.8885 C   0  0  0  0  0  0  0  0  0  0  0  0
   -4.8350   -5.3873   -1.7106 C   0  0  0  0  0  0  0  0  0  0  0  0
   -3.6234   -4.6918   -1.7298 C   0  0  0  0  0  0  0  0  0  0  0  0
   -0.4488    0.8025   -0.3158 C   0  0  0  0  0  0  0  0  0  0  0  0
    0.7587    1.2820   -0.8517 C   0  0  0  0  0  0  0  0  0  0  0  0
    0.8374    2.5651   -1.3992 C   0  0  0  0  0  0  0  0  0  0  0  0
   -0.2852    3.3882   -1.4182 C   0  0  0  0  0  0  0  0  0  0  0  0
   -1.4895    2.9304   -0.8916 C   0  0  0  0  0  0  0  0  0  0  0  0
   -1.5734    1.6476   -0.3451 C   0  0  0  0  0  0  0  0  0  0  0  0
    0.9915   -2.1993    3.4147 H   0  0  0  0  0  0  0  0  0  0  0  0
    1.9563   -0.8006    3.8733 H   0  0  0  0  0  0  0  0  0  0  0  0
    2.8745   -1.7589    1.8404 H   0  0  0  0  0  0  0  0  0  0  0  0
    2.2456   -0.1535    1.5040 H   0  0  0  0  0  0  0  0  0  0  0  0
    1.6514   -1.7294   -0.3162 H   0  0  0  0  0  0  0  0  0  0  0  0
    0.9194   -2.8382    0.8386 H   0  0  0  0  0  0  0  0  0  0  0  0
   -1.9972   -0.1047    2.3211 H   0  0  0  0  0  0  0  0  0  0  0  0
   -1.4748   -1.7705    2.5865 H   0  0  0  0  0  0  0  0  0  0  0  0
    0.2604    0.7409    2.9168 H   0  0  0  0  0  0  0  0  0  0  0  0
   -0.3860   -0.2696    4.2023 H   0  0  0  0  0  0  0  0  0  0  0  0
   -2.5435   -0.1194   -2.9411 H   0  0  0  0  0  0  0  0  0  0  0  0
   -2.7220   -1.3799   -4.1582 H   0  0  0  0  0  0  0  0  0  0  0  0
   -0.9054    0.0654   -4.8191 H   0  0  0  0  0  0  0  0  0  0  0  0
   -0.1091   -0.0755   -3.2624 H   0  0  0  0  0  0  0  0  0  0  0  0
   -0.5031   -2.3834   -5.2421 H   0  0  0  0  0  0  0  0  0  0  0  0
    0.9694   -1.4405   -5.0375 H   0  0  0  0  0  0  0  0  0  0  0  0
    1.2479   -3.4994   -3.8134 H   0  0  0  0  0  0  0  0  0  0  0  0
    1.1461   -2.1780   -2.6597 H   0  0  0  0  0  0  0  0  0  0  0  0
   -1.0307   -4.1960   -3.3942 H   0  0  0  0  0  0  0  0  0  0  0  0
   -0.1779   -4.0917   -1.8542 H   0  0  0  0  0  0  0  0  0  0  0  0
   -4.8487   -1.5483   -2.2488 H   0  0  0  0  0  0  0  0  0  0  0  0
   -6.9665   -2.7925   -2.2122 H   0  0  0  0  0  0  0  0  0  0  0  0
   -6.9769   -5.2492   -1.8776 H   0  0  0  0  0  0  0  0  0  0  0  0
   -4.8391   -6.4635   -1.5591 H   0  0  0  0  0  0  0  0  0  0  0  0
   -2.7027   -5.2550   -1.5878 H   0  0  0  0  0  0  0  0  0  0  0  0
    1.6561    0.6673   -0.8616 H   0  0  0  0  0  0  0  0  0  0  0  0
    1.7773    2.9204   -1.8131 H   0  0  0  0  0  0  0  0  0  0  0  0
   -0.2215    4.3858   -1.8443 H   0  0  0  0  0  0  0  0  0  0  0  0
   -2.3675    3.5712   -0.9059 H   0  0  0  0  0  0  0  0  0  0  0  0
   -2.5307    1.3157    0.0547 H   0  0  0  0  0  0  0  0  0  0  0  0
  1  6  1  0  0  0  0
  1  2  1  0  0  0  0
  1 26  1  0  0  0  0
  1 27  1  0  0  0  0
  2  3  1  0  0  0  0
  2 28  1  0  0  0  0
  2 29  1  0  0  0  0
  3  4  1  0  0  0  0
  3 30  1  0  0  0  0
  3 31  1  0  0  0  0
  4  5  1  0  0  0  0
  4 20  1  0  0  0  0
  4  7  1  0  0  0  0
  5  6  1  0  0  0  0
  5 32  1  0  0  0  0
  5 33  1  0  0  0  0
  6 34  1  0  0  0  0
  6 35  1  0  0  0  0
  7  8  1  0  0  0  0
  8 13  1  0  0  0  0
  8  9  1  0  0  0  0
  8 14  1  0  0  0  0
  9 10  1  0  0  0  0
  9 36  1  0  0  0  0
  9 37  1  0  0  0  0
 10 11  1  0  0  0  0
 10 38  1  0  0  0  0
 10 39  1  0  0  0  0
 11 12  1  0  0  0  0
 11 40  1  0  0  0  0
 11 41  1  0  0  0  0
 12 13  1  0  0  0  0
 12 42  1  0  0  0  0
 12 43  1  0  0  0  0
 13 44  1  0  0  0  0
 13 45  1  0  0  0  0
 14 15  2  0  0  0  0
 14 19  1  0  0  0  0
 15 16  1  0  0  0  0
 15 46  1  0  0  0  0
 16 17  2  0  0  0  0
 16 47  1  0  0  0  0
 17 18  1  0  0  0  0
 17 48  1  0  0  0  0
 18 19  2  0  0  0  0
 18 49  1  0  0  0  0
 19 50  1  0  0  0  0
 20 21  2  0  0  0  0
 20 25  1  0  0  0  0
 21 22  1  0  0  0  0
 21 51  1  0  0  0  0
 22 23  2  0  0  0  0
 22 52  1  0  0  0  0
 23 24  1  0  0  0  0
 23 53  1  0  0  0  0
 24 25  2  0  0  0  0
 24 54  1  0  0  0  0
 25 55  1  0  0  0  0
M  END
$$$$