35866786 35866785
 OpenBabel01161410223D

 60 63  0  0  0  0  0  0  0  0999 V2000
   12.8859   -1.6076    8.0416 C   0  0  0  0  0  0  0  0  0  0  0  0
   12.4122   -0.9463    6.9091 C   0  0  0  0  0  0  0  0  0  0  0  0
   13.3065   -0.3771    5.9947 C   0  0  0  0  0  0  0  0  0  0  0  0
   14.6852   -0.4325    6.2230 C   0  0  0  0  0  0  0  0  0  0  0  0
   15.1429   -1.2050    7.3058 C   0  0  0  0  0  0  0  0  0  0  0  0
   14.2549   -1.7602    8.2270 C   0  0  0  0  0  0  0  0  0  0  0  0
   15.7236    0.1995    5.3106 C   0  0  0  0  0  0  0  0  0  0  0  0
   15.3209    1.3834    4.4978 N   0  0  0  0  0  0  0  0  0  0  0  0
   16.1206    1.4338    3.2318 C   0  0  0  0  0  0  0  0  0  0  0  0
   16.2687    0.1191    2.5032 C   0  0  0  0  0  0  0  0  0  0  0  0
   17.4955   -0.5662    2.5497 C   0  0  0  0  0  0  0  0  0  0  0  0
   17.5820   -1.8804    2.0976 C   0  0  0  0  0  0  0  0  0  0  0  0
   16.4540   -2.5033    1.5680 C   0  0  0  0  0  0  0  0  0  0  0  0
   15.2494   -1.8084    1.4639 C   0  0  0  0  0  0  0  0  0  0  0  0
   15.1525   -0.4970    1.9272 C   0  0  0  0  0  0  0  0  0  0  0  0
   15.2974    2.9008    5.2612 S   0  0  0  0  0  0  0  0  0  0  0  0
   13.3543    3.0574    5.8199 S   0  0  0  0  0  0  0  0  0  0  0  0
   13.2871    3.0329    7.5134 N   0  0  0  0  0  0  0  0  0  0  0  0
   14.2581    2.3534    8.4250 C   0  0  0  0  0  0  0  0  0  0  0  0
   15.7408    2.6730    8.3704 C   0  0  0  0  0  0  0  0  0  0  0  0
   16.2424    3.9672    8.2024 C   0  0  0  0  0  0  0  0  0  0  0  0
   17.6203    4.1805    8.0633 C   0  0  0  0  0  0  0  0  0  0  0  0
   18.5132    3.1065    8.1227 C   0  0  0  0  0  0  0  0  0  0  0  0
   18.0363    1.8292    8.3773 C   0  0  0  0  0  0  0  0  0  0  0  0
   16.6660    1.6253    8.5339 C   0  0  0  0  0  0  0  0  0  0  0  0
   11.9382    2.6356    8.0439 C   0  0  0  0  0  0  0  0  0  0  0  0
   10.7658    3.4674    7.5596 C   0  0  0  0  0  0  0  0  0  0  0  0
    9.9365    3.0137    6.5199 C   0  0  0  0  0  0  0  0  0  0  0  0
    8.8589    3.7841    6.0830 C   0  0  0  0  0  0  0  0  0  0  0  0
    8.5915    5.0117    6.6866 C   0  0  0  0  0  0  0  0  0  0  0  0
    9.4079    5.4696    7.7222 C   0  0  0  0  0  0  0  0  0  0  0  0
   10.4911    4.7063    8.1533 C   0  0  0  0  0  0  0  0  0  0  0  0
   12.1897   -2.0138    8.7701 H   0  0  0  0  0  0  0  0  0  0  0  0
   11.3415   -0.8493    6.7491 H   0  0  0  0  0  0  0  0  0  0  0  0
   12.9147    0.1395    5.1219 H   0  0  0  0  0  0  0  0  0  0  0  0
   16.2116   -1.3470    7.4539 H   0  0  0  0  0  0  0  0  0  0  0  0
   14.6358   -2.3000    9.0899 H   0  0  0  0  0  0  0  0  0  0  0  0
   16.6224    0.4575    5.8841 H   0  0  0  0  0  0  0  0  0  0  0  0
   16.0080   -0.6545    4.6951 H   0  0  0  0  0  0  0  0  0  0  0  0
   17.1232    1.8347    3.4437 H   0  0  0  0  0  0  0  0  0  0  0  0
   15.6514    2.1461    2.5369 H   0  0  0  0  0  0  0  0  0  0  0  0
   18.3685   -0.1039    3.0058 H   0  0  0  0  0  0  0  0  0  0  0  0
   18.5157   -2.4267    2.1928 H   0  0  0  0  0  0  0  0  0  0  0  0
   16.5088   -3.5396    1.2464 H   0  0  0  0  0  0  0  0  0  0  0  0
   14.3705   -2.2994    1.0561 H   0  0  0  0  0  0  0  0  0  0  0  0
   14.1966    0.0200    1.8967 H   0  0  0  0  0  0  0  0  0  0  0  0
   14.1211    1.2743    8.3287 H   0  0  0  0  0  0  0  0  0  0  0  0
   13.9875    2.5953    9.4625 H   0  0  0  0  0  0  0  0  0  0  0  0
   15.5593    4.8092    8.1158 H   0  0  0  0  0  0  0  0  0  0  0  0
   17.9962    5.1807    7.8790 H   0  0  0  0  0  0  0  0  0  0  0  0
   19.5773    3.2706    7.9770 H   0  0  0  0  0  0  0  0  0  0  0  0
   18.7212    0.9870    8.4421 H   0  0  0  0  0  0  0  0  0  0  0  0
   16.3140    0.6243    8.7597 H   0  0  0  0  0  0  0  0  0  0  0  0
   11.9157    2.6913    9.1405 H   0  0  0  0  0  0  0  0  0  0  0  0
   11.7402    1.5837    7.8050 H   0  0  0  0  0  0  0  0  0  0  0  0
   10.1363    2.0595    6.0327 H   0  0  0  0  0  0  0  0  0  0  0  0
    8.2296    3.4326    5.2671 H   0  0  0  0  0  0  0  0  0  0  0  0
    7.7548    5.6150    6.3478 H   0  0  0  0  0  0  0  0  0  0  0  0
    9.2014    6.4290    8.1905 H   0  0  0  0  0  0  0  0  0  0  0  0
   11.1250    5.0769    8.9545 H   0  0  0  0  0  0  0  0  0  0  0  0
  1  2  2  0  0  0  0
  1  6  1  0  0  0  0
  1 33  1  0  0  0  0
  2  3  1  0  0  0  0
  2 34  1  0  0  0  0
  3  4  2  0  0  0  0
  3 35  1  0  0  0  0
  4  5  1  0  0  0  0
  4  7  1  0  0  0  0
  5  6  2  0  0  0  0
  5 36  1  0  0  0  0
  6 37  1  0  0  0  0
  7  8  1  0  0  0  0
  7 38  1  0  0  0  0
  7 39  1  0  0  0  0
  8 16  1  0  0  0  0
  8  9  1  0  0  0  0
  9 10  1  0  0  0  0
  9 40  1  0  0  0  0
  9 41  1  0  0  0  0
 10 11  2  0  0  0  0
 10 15  1  0  0  0  0
 11 12  1  0  0  0  0
 11 42  1  0  0  0  0
 12 13  2  0  0  0  0
 12 43  1  0  0  0  0
 13 14  1  0  0  0  0
 13 44  1  0  0  0  0
 14 15  2  0  0  0  0
 14 45  1  0  0  0  0
 15 46  1  0  0  0  0
 16 17  1  0  0  0  0
 17 18  1  0  0  0  0
 18 26  1  0  0  0  0
 18 19  1  0  0  0  0
 19 20  1  0  0  0  0
 19 47  1  0  0  0  0
 19 48  1  0  0  0  0
 20 21  2  0  0  0  0
 20 25  1  0  0  0  0
 21 22  1  0  0  0  0
 21 49  1  0  0  0  0
 22 23  2  0  0  0  0
 22 50  1  0  0  0  0
 23 24  1  0  0  0  0
 23 51  1  0  0  0  0
 24 25  2  0  0  0  0
 24 52  1  0  0  0  0
 25 53  1  0  0  0  0
 26 27  1  0  0  0  0
 26 54  1  0  0  0  0
 26 55  1  0  0  0  0
 27 28  2  0  0  0  0
 27 32  1  0  0  0  0
 28 29  1  0  0  0  0
 28 56  1  0  0  0  0
 29 30  2  0  0  0  0
 29 57  1  0  0  0  0
 30 31  1  0  0  0  0
 30 58  1  0  0  0  0
 31 32  2  0  0  0  0
 31 59  1  0  0  0  0
 32 60  1  0  0  0  0
M  END
$$$$