36366170 36366169
 OpenBabel01161410453D

 10  9  0  0  0  0  0  0  0  0999 V2000
    1.0603   -0.0517    0.1030 C   0  0  0  0  0  0  0  0  0  0  0  0
    2.5834   -0.0533    0.1076 C   0  0  0  0  0  0  0  0  0  0  0  0
    3.2096    1.0943    1.3682 S   0  0  0  0  0  0  0  0  0  0  0  0
    3.2095   -1.7286    0.4224 S   0  0  0  0  0  0  0  0  0  0  0  0
    0.6710   -0.7194   -0.6742 H   0  0  0  0  0  0  0  0  0  0  0  0
    0.6710    0.9496   -0.1149 H   0  0  0  0  0  0  0  0  0  0  0  0
    0.6390   -0.3732    1.0627 H   0  0  0  0  0  0  0  0  0  0  0  0
    2.9543    0.2738   -0.8686 H   0  0  0  0  0  0  0  0  0  0  0  0
    2.6883    0.4580    2.4260 H   0  0  0  0  0  0  0  0  0  0  0  0
    2.6884   -1.8580    1.6499 H   0  0  0  0  0  0  0  0  0  0  0  0
  1  2  1  0  0  0  0
  1  5  1  0  0  0  0
  1  6  1  0  0  0  0
  1  7  1  0  0  0  0
  2  4  1  0  0  0  0
  2  3  1  0  0  0  0
  2  8  1  0  0  0  0
  3  9  1  0  0  0  0
  4 10  1  0  0  0  0
M  END
$$$$