35874528 35874527
 OpenBabel01161410573D

 19 21  0  0  1  0  0  0  0  0999 V2000
   -2.0159   -0.6993   -0.2578 S   0  0  0  0  0  0  0  0  0  0  0  0
   -1.1628    0.8851    0.0703 C   0  0  0  0  0  0  0  0  0  0  0  0
    0.1459    0.8311   -0.7354 C   0  0  3  0  0  0  0  0  0  0  0  0
    0.5434   -0.5584   -0.9262 N   0  0  3  0  0  0  0  0  0  0  0  0
   -0.6067   -1.4182   -1.1637 C   0  0  3  0  0  0  0  0  0  0  0  0
   -0.2038   -2.8644   -0.7916 C   0  0  0  0  0  0  0  0  0  0  0  0
    1.3751   -2.7534    0.1416 S   0  0  0  0  0  0  0  0  0  0  0  0
    1.1828   -0.9825    0.3238 C   0  0  3  0  0  0  0  0  0  0  0  0
    2.3711   -0.0522    0.4820 C   0  0  0  0  0  0  0  0  0  0  0  0
    1.5810    1.5795    0.1442 S   0  0  0  0  0  0  0  0  0  0  0  0
   -1.0052    0.9655    1.1506 H   0  0  0  0  0  0  0  0  0  0  0  0
   -1.7948    1.7174   -0.2538 H   0  0  0  0  0  0  0  0  0  0  0  0
    0.0210    1.3298   -1.7025 H   0  0  0  0  0  0  0  0  0  0  0  0
   -0.8829   -1.3881   -2.2233 H   0  0  0  0  0  0  0  0  0  0  0  0
   -0.9580   -3.3802   -0.1911 H   0  0  0  0  0  0  0  0  0  0  0  0
   -0.0037   -3.4514   -1.6932 H   0  0  0  0  0  0  0  0  0  0  0  0
    0.5368   -0.8640    1.2058 H   0  0  0  0  0  0  0  0  0  0  0  0
    3.1587   -0.2306   -0.2564 H   0  0  0  0  0  0  0  0  0  0  0  0
    2.7934   -0.0716    1.4898 H   0  0  0  0  0  0  0  0  0  0  0  0
  1  5  1  0  0  0  0
  1  2  1  0  0  0  0
  2  3  1  0  0  0  0
  2 11  1  0  0  0  0
  2 12  1  0  0  0  0
  3  4  1  0  0  0  0
  3 10  1  0  0  0  0
  3 13  1  0  0  0  0
  4  5  1  0  0  0  0
  4  8  1  0  0  0  0
  5  6  1  0  0  0  0
  5 14  1  0  0  0  0
  6  7  1  0  0  0  0
  6 15  1  0  0  0  0
  6 16  1  0  0  0  0
  7  8  1  0  0  0  0
  8  9  1  0  0  0  0
  8 17  1  0  0  0  0
  9 10  1  0  0  0  0
  9 18  1  0  0  0  0
  9 19  1  0  0  0  0
M  END
$$$$