10449116 10449115
 OpenBabel01161410543D

 19 18  0  0  0  0  0  0  0  0999 V2000
    3.1864    4.3820   -1.4550 N   0  0  0  0  0  0  0  0  0  0  0  0
    2.5814    3.2701   -0.7239 C   0  0  0  0  0  0  0  0  0  0  0  0
    3.1597    1.9076   -1.1262 C   0  0  0  0  0  0  0  0  0  0  0  0
    4.5850    1.6258   -0.6253 C   0  0  0  0  0  0  0  0  0  0  0  0
    6.0022    2.5118   -1.4746 Si  0  0  0  0  0  0  0  0  0  0  0  0
    5.9905    2.2765   -3.1110 O   0  0  0  0  0  0  0  0  0  0  0  0
    5.9519    4.1376   -1.1835 O   0  0  0  0  0  0  0  0  0  0  0  0
    7.4764    1.9885   -0.9362 O   0  0  0  0  0  0  0  0  0  0  0  0
    2.6826    5.2390   -1.2146 H   0  0  0  0  0  0  0  0  0  0  0  0
    3.0149    4.2468   -2.4559 H   0  0  0  0  0  0  0  0  0  0  0  0
    1.5040    3.2699   -0.9251 H   0  0  0  0  0  0  0  0  0  0  0  0
    2.7107    3.4314    0.3516 H   0  0  0  0  0  0  0  0  0  0  0  0
    3.0998    1.7791   -2.2146 H   0  0  0  0  0  0  0  0  0  0  0  0
    2.5047    1.1396   -0.6933 H   0  0  0  0  0  0  0  0  0  0  0  0
    4.7704    0.5518   -0.7466 H   0  0  0  0  0  0  0  0  0  0  0  0
    4.6366    1.8248    0.4510 H   0  0  0  0  0  0  0  0  0  0  0  0
    6.6986    1.6921   -3.4232 H   0  0  0  0  0  0  0  0  0  0  0  0
    5.0456    4.4982   -1.2920 H   0  0  0  0  0  0  0  0  0  0  0  0
    7.9138    2.6242   -0.3476 H   0  0  0  0  0  0  0  0  0  0  0  0
  1  2  1  0  0  0  0
  1  9  1  0  0  0  0
  1 10  1  0  0  0  0
  2  3  1  0  0  0  0
  2 11  1  0  0  0  0
  2 12  1  0  0  0  0
  3  4  1  0  0  0  0
  3 13  1  0  0  0  0
  3 14  1  0  0  0  0
  4  5  1  0  0  0  0
  4 15  1  0  0  0  0
  4 16  1  0  0  0  0
  5  8  1  0  0  0  0
  5  7  1  0  0  0  0
  5  6  1  0  0  0  0
  6 17  1  0  0  0  0
  7 18  1  0  0  0  0
  8 19  1  0  0  0  0
M  END
$$$$