1097959 1097958
 OpenBabel01161409553D

 35 39  0  0  1  0  0  0  0  0999 V2000
    1.8713    0.9661    0.7295 C   0  0  0  0  0  0  0  0  0  0  0  0
    2.2701    0.0372   -0.2271 C   0  0  0  0  0  0  0  0  0  0  0  0
    1.3254   -0.7890   -0.8328 C   0  0  0  0  0  0  0  0  0  0  0  0
   -0.0250   -0.7162   -0.4604 C   0  0  0  0  0  0  0  0  0  0  0  0
   -0.4194    0.1632    0.5835 C   0  0  0  0  0  0  0  0  0  0  0  0
    0.5376    1.0244    1.1414 C   0  0  0  0  0  0  0  0  0  0  0  0
   -1.8256    0.1360    1.1867 C   0  0  0  0  0  0  0  0  0  0  0  0
   -2.7841   -0.5573    0.2463 C   0  0  3  0  0  0  0  0  0  0  0  0
   -2.1825   -1.8619   -0.2986 C   0  0  3  0  0  0  0  0  0  0  0  0
   -1.0343   -1.5611   -1.2243 C   0  0  0  0  0  0  0  0  0  0  0  0
   -3.4459   -2.5729   -0.8177 C   0  0  3  0  0  0  0  0  0  0  0  0
   -4.4854   -1.5402   -0.7318 O   0  0  0  0  0  0  0  0  0  0  0  0
   -4.1838   -1.0425    0.6389 C   0  0  3  0  0  0  0  0  0  0  0  0
   -4.3106   -2.3869    1.3172 C   0  0  0  0  0  0  0  0  0  0  0  0
   -3.9320   -3.3551    0.3590 C   0  0  0  0  0  0  0  0  0  0  0  0
   -3.9442   -4.7092    0.6054 C   0  0  0  0  0  0  0  0  0  0  0  0
   -4.3550   -5.1147    1.8747 C   0  0  0  0  0  0  0  0  0  0  0  0
   -4.7223   -4.1612    2.8481 C   0  0  0  0  0  0  0  0  0  0  0  0
   -4.7027   -2.7846    2.5765 C   0  0  0  0  0  0  0  0  0  0  0  0
    2.6052    1.6357    1.1717 H   0  0  0  0  0  0  0  0  0  0  0  0
    3.3165   -0.0382   -0.5118 H   0  0  0  0  0  0  0  0  0  0  0  0
    1.6487   -1.5000   -1.5886 H   0  0  0  0  0  0  0  0  0  0  0  0
    0.2522    1.7408    1.9075 H   0  0  0  0  0  0  0  0  0  0  0  0
   -1.7844   -0.3747    2.1543 H   0  0  0  0  0  0  0  0  0  0  0  0
   -2.1684    1.1644    1.3591 H   0  0  0  0  0  0  0  0  0  0  0  0
   -2.9199    0.1384   -0.6014 H   0  0  0  0  0  0  0  0  0  0  0  0
   -1.7394   -2.4472    0.5265 H   0  0  0  0  0  0  0  0  0  0  0  0
   -1.3622   -1.0148   -2.1152 H   0  0  0  0  0  0  0  0  0  0  0  0
   -0.5766   -2.5028   -1.5485 H   0  0  0  0  0  0  0  0  0  0  0  0
   -3.4288   -3.0724   -1.7857 H   0  0  0  0  0  0  0  0  0  0  0  0
   -4.9178   -0.2867    0.9235 H   0  0  0  0  0  0  0  0  0  0  0  0
   -3.6379   -5.4258   -0.1489 H   0  0  0  0  0  0  0  0  0  0  0  0
   -4.3822   -6.1735    2.1142 H   0  0  0  0  0  0  0  0  0  0  0  0
   -5.0300   -4.5134    3.8317 H   0  0  0  0  0  0  0  0  0  0  0  0
   -4.9961   -2.0689    3.3369 H   0  0  0  0  0  0  0  0  0  0  0  0
  1  2  2  0  0  0  0
  1  6  1  0  0  0  0
  1 20  1  0  0  0  0
  2  3  1  0  0  0  0
  2 21  1  0  0  0  0
  3  4  2  0  0  0  0
  3 22  1  0  0  0  0
  4 10  1  0  0  0  0
  4  5  1  0  0  0  0
  5  6  2  0  0  0  0
  5  7  1  0  0  0  0
  6 23  1  0  0  0  0
  7  8  1  0  0  0  0
  7 24  1  0  0  0  0
  7 25  1  0  0  0  0
  8  9  1  0  0  0  0
  8 13  1  0  0  0  0
  8 26  1  0  0  0  0
  9 10  1  0  0  0  0
  9 11  1  0  0  0  0
  9 27  1  0  0  0  0
 10 28  1  0  0  0  0
 10 29  1  0  0  0  0
 11 12  1  0  0  0  0
 11 15  1  0  0  0  0
 11 30  1  0  0  0  0
 12 13  1  0  0  0  0
 13 14  1  0  0  0  0
 13 31  1  0  0  0  0
 14 19  1  0  0  0  0
 14 15  2  0  0  0  0
 15 16  1  0  0  0  0
 16 17  2  0  0  0  0
 16 32  1  0  0  0  0
 17 18  1  0  0  0  0
 17 33  1  0  0  0  0
 18 19  2  0  0  0  0
 18 34  1  0  0  0  0
 19 35  1  0  0  0  0
M  END
$$$$