48264657 48264656
 OpenBabel01161410453D

 34 35  0  0  1  0  0  0  0  0999 V2000
    6.0975   -1.1398   -2.0386 C   0  0  0  0  0  0  0  0  0  0  0  0
    6.6305   -2.3351   -1.4866 O   0  0  0  0  0  0  0  0  0  0  0  0
    5.7928   -3.0813   -0.7548 C   0  0  0  0  0  0  0  0  0  0  0  0
    4.4660   -2.8961   -0.4136 C   0  0  0  0  0  0  0  0  0  0  0  0
    3.9511   -3.9409    0.4064 C   0  0  0  0  0  0  0  0  0  0  0  0
    4.8893   -4.9212    0.6617 C   0  0  0  0  0  0  0  0  0  0  0  0
    6.3866   -4.5424   -0.0783 S   0  0  0  0  0  0  0  0  0  0  0  0
    4.7614   -6.1739    1.4865 C   0  0  0  0  0  0  0  0  0  0  0  0
    3.3617   -6.6118    1.5358 N   0  0  0  0  0  0  0  0  0  0  0  0
    3.1782   -7.8294    2.3428 C   0  0  3  0  0  0  0  0  0  0  0  0
    3.3771   -7.5833    3.8207 C   0  0  0  0  0  0  0  0  0  0  0  0
    3.1462   -6.4370    4.5589 C   0  0  0  0  0  0  0  0  0  0  0  0
    3.4428   -6.6056    5.9413 C   0  0  0  0  0  0  0  0  0  0  0  0
    3.8704   -7.8837    6.2290 C   0  0  0  0  0  0  0  0  0  0  0  0
    3.9494   -8.8544    4.8247 S   0  0  0  0  0  0  0  0  0  0  0  0
    4.2397   -8.4607    7.5513 C   0  0  0  0  0  0  0  0  0  0  0  0
    1.7530   -8.3431    2.0953 C   0  0  0  0  0  0  0  0  0  0  0  0
    6.8978   -0.6335   -2.5872 H   0  0  0  0  0  0  0  0  0  0  0  0
    5.7478   -0.4628   -1.2515 H   0  0  0  0  0  0  0  0  0  0  0  0
    5.2907   -1.3619   -2.7448 H   0  0  0  0  0  0  0  0  0  0  0  0
    3.8769   -2.0429   -0.7254 H   0  0  0  0  0  0  0  0  0  0  0  0
    2.9390   -3.9747    0.7904 H   0  0  0  0  0  0  0  0  0  0  0  0
    5.1430   -5.9521    2.4893 H   0  0  0  0  0  0  0  0  0  0  0  0
    5.3805   -6.9705    1.0561 H   0  0  0  0  0  0  0  0  0  0  0  0
    3.0689   -6.8075    0.5791 H   0  0  0  0  0  0  0  0  0  0  0  0
    3.8764   -8.5998    1.9896 H   0  0  0  0  0  0  0  0  0  0  0  0
    2.7852   -5.5148    4.1168 H   0  0  0  0  0  0  0  0  0  0  0  0
    3.3336   -5.8274    6.6863 H   0  0  0  0  0  0  0  0  0  0  0  0
    5.2521   -8.8791    7.5296 H   0  0  0  0  0  0  0  0  0  0  0  0
    3.5395   -9.2549    7.8341 H   0  0  0  0  0  0  0  0  0  0  0  0
    4.2108   -7.6955    8.3351 H   0  0  0  0  0  0  0  0  0  0  0  0
    0.9993   -7.6055    2.3956 H   0  0  0  0  0  0  0  0  0  0  0  0
    1.5591   -9.2600    2.6626 H   0  0  0  0  0  0  0  0  0  0  0  0
    1.5961   -8.5736    1.0353 H   0  0  0  0  0  0  0  0  0  0  0  0
  1  2  1  0  0  0  0
  1 18  1  0  0  0  0
  1 19  1  0  0  0  0
  1 20  1  0  0  0  0
  2  3  1  0  0  0  0
  3  4  2  0  0  0  0
  3  7  1  0  0  0  0
  4  5  1  0  0  0  0
  4 21  1  0  0  0  0
  5  6  2  0  0  0  0
  5 22  1  0  0  0  0
  6  7  1  0  0  0  0
  6  8  1  0  0  0  0
  8  9  1  0  0  0  0
  8 23  1  0  0  0  0
  8 24  1  0  0  0  0
  9 10  1  0  0  0  0
  9 25  1  0  0  0  0
 10 17  1  0  0  0  0
 10 11  1  0  0  0  0
 10 26  1  0  0  0  0
 11 12  2  0  0  0  0
 11 15  1  0  0  0  0
 12 13  1  0  0  0  0
 12 27  1  0  0  0  0
 13 14  2  0  0  0  0
 13 28  1  0  0  0  0
 14 15  1  0  0  0  0
 14 16  1  0  0  0  0
 16 29  1  0  0  0  0
 16 30  1  0  0  0  0
 16 31  1  0  0  0  0
 17 32  1  0  0  0  0
 17 33  1  0  0  0  0
 17 34  1  0  0  0  0
M  END
$$$$