44048687 44048686
 OpenBabel01161410453D

 42 45  0  0  0  0  0  0  0  0999 V2000
    0.4540   -1.9715   -3.8597 C   0  0  0  0  0  0  0  0  0  0  0  0
    0.9823   -1.0801   -2.8251 N   0  0  0  0  0  0  0  0  0  0  0  0
    1.5075   -1.7994   -1.7287 C   0  0  0  0  0  0  0  0  0  0  0  0
    2.4292   -1.1781   -0.8874 C   0  0  0  0  0  0  0  0  0  0  0  0
    3.0234   -1.9000    0.1531 C   0  0  0  0  0  0  0  0  0  0  0  0
    2.7044   -3.2438    0.3533 C   0  0  0  0  0  0  0  0  0  0  0  0
    1.7298   -3.7566   -0.4952 C   0  0  0  0  0  0  0  0  0  0  0  0
    1.1512   -3.0817   -1.5256 N   0  0  0  0  0  0  0  0  0  0  0  0
    3.3212   -3.9450    1.4060 N   0  0  0  0  0  0  0  0  0  0  0  0
    3.0871   -5.2385    1.9005 C   0  0  0  0  0  0  0  0  0  0  0  0
    1.9121   -5.8534    1.6095 N   0  0  0  0  0  0  0  0  0  0  0  0
    1.6919   -7.1060    2.0185 C   0  0  0  0  0  0  0  0  0  0  0  0
    2.5226   -7.8811    2.7018 N   0  0  0  0  0  0  0  0  0  0  0  0
    3.6666   -7.2517    3.0195 C   0  0  0  0  0  0  0  0  0  0  0  0
    4.0218   -5.9442    2.7054 C   0  0  0  0  0  0  0  0  0  0  0  0
    5.3137   -5.6272    3.3035 C   0  0  0  0  0  0  0  0  0  0  0  0
    5.8602   -6.7203    3.9513 C   0  0  0  0  0  0  0  0  0  0  0  0
    4.8595   -8.0929    3.8948 S   0  0  0  0  0  0  0  0  0  0  0  0
    6.0290   -4.3512    3.3530 C   0  0  0  0  0  0  0  0  0  0  0  0
    5.3804   -3.1914    3.7973 C   0  0  0  0  0  0  0  0  0  0  0  0
    6.0726   -1.9812    3.8862 C   0  0  0  0  0  0  0  0  0  0  0  0
    7.4281   -1.9266    3.5595 C   0  0  0  0  0  0  0  0  0  0  0  0
    8.0892   -3.0766    3.1350 C   0  0  0  0  0  0  0  0  0  0  0  0
    7.3933   -4.2819    3.0236 C   0  0  0  0  0  0  0  0  0  0  0  0
    0.0283   -0.0648   -2.3801 C   0  0  0  0  0  0  0  0  0  0  0  0
    0.1738   -1.3842   -4.7421 H   0  0  0  0  0  0  0  0  0  0  0  0
   -0.4375   -2.5149   -3.5247 H   0  0  0  0  0  0  0  0  0  0  0  0
    1.2143   -2.6892   -4.1902 H   0  0  0  0  0  0  0  0  0  0  0  0
    2.7156   -0.1463   -1.0633 H   0  0  0  0  0  0  0  0  0  0  0  0
    3.7465   -1.4003    0.7905 H   0  0  0  0  0  0  0  0  0  0  0  0
    1.3810   -4.7788   -0.4134 H   0  0  0  0  0  0  0  0  0  0  0  0
    4.2495   -3.5967    1.6118 H   0  0  0  0  0  0  0  0  0  0  0  0
    0.7314   -7.5366    1.7535 H   0  0  0  0  0  0  0  0  0  0  0  0
    6.8005   -6.7792    4.4833 H   0  0  0  0  0  0  0  0  0  0  0  0
    4.3336   -3.2185    4.0917 H   0  0  0  0  0  0  0  0  0  0  0  0
    5.5594   -1.0849    4.2251 H   0  0  0  0  0  0  0  0  0  0  0  0
    7.9702   -0.9875    3.6466 H   0  0  0  0  0  0  0  0  0  0  0  0
    9.1481   -3.0376    2.8994 H   0  0  0  0  0  0  0  0  0  0  0  0
    7.9301   -5.1673    2.6921 H   0  0  0  0  0  0  0  0  0  0  0  0
   -0.3660    0.4800   -3.2463 H   0  0  0  0  0  0  0  0  0  0  0  0
    0.5010    0.6801   -1.7297 H   0  0  0  0  0  0  0  0  0  0  0  0
   -0.8205   -0.5124   -1.8502 H   0  0  0  0  0  0  0  0  0  0  0  0
  1  2  1  0  0  0  0
  1 26  1  0  0  0  0
  1 27  1  0  0  0  0
  1 28  1  0  0  0  0
  2 25  1  0  0  0  0
  2  3  1  0  0  0  0
  3  4  2  0  0  0  0
  3  8  1  0  0  0  0
  4  5  1  0  0  0  0
  4 29  1  0  0  0  0
  5  6  2  0  0  0  0
  5 30  1  0  0  0  0
  6  7  1  0  0  0  0
  6  9  1  0  0  0  0
  7  8  2  0  0  0  0
  7 31  1  0  0  0  0
  9 10  1  0  0  0  0
  9 32  1  0  0  0  0
 10 11  2  0  0  0  0
 10 15  1  0  0  0  0
 11 12  1  0  0  0  0
 12 13  2  0  0  0  0
 12 33  1  0  0  0  0
 13 14  1  0  0  0  0
 14 18  1  0  0  0  0
 14 15  2  0  0  0  0
 15 16  1  0  0  0  0
 16 17  2  0  0  0  0
 16 19  1  0  0  0  0
 17 18  1  0  0  0  0
 17 34  1  0  0  0  0
 19 20  2  0  0  0  0
 19 24  1  0  0  0  0
 20 21  1  0  0  0  0
 20 35  1  0  0  0  0
 21 22  2  0  0  0  0
 21 36  1  0  0  0  0
 22 23  1  0  0  0  0
 22 37  1  0  0  0  0
 23 24  2  0  0  0  0
 23 38  1  0  0  0  0
 24 39  1  0  0  0  0
 25 40  1  0  0  0  0
 25 41  1  0  0  0  0
 25 42  1  0  0  0  0
M  END
$$$$