11489110 11489109
 OpenBabel01161410163D

 14 14  0  0  0  0  0  0  0  0999 V2000
    1.1694   -0.0550   -0.1436 C   0  0  0  0  0  0  0  0  0  0  0  0
    2.6170   -0.0649    0.1249 C   0  0  0  0  0  0  0  0  0  0  0  0
    3.3704    0.8470    0.6997 N   0  0  0  0  0  0  0  0  0  0  0  0
    4.6561    0.3486    0.6974 N   0  0  0  0  0  0  0  0  0  0  0  0
    4.5974   -0.8312    0.1153 C   0  0  0  0  0  0  0  0  0  0  0  0
    3.3232   -1.1699   -0.2707 O   0  0  0  0  0  0  0  0  0  0  0  0
    5.6716   -1.8204   -0.1339 C   0  0  0  0  0  0  0  0  0  0  0  0
    5.4747   -2.4290   -1.4118 O   0  0  0  0  0  0  0  0  0  0  0  0
    0.7381   -1.0497    0.0034 H   0  0  0  0  0  0  0  0  0  0  0  0
    0.9769    0.2580   -1.1736 H   0  0  0  0  0  0  0  0  0  0  0  0
    0.6584    0.6400    0.5289 H   0  0  0  0  0  0  0  0  0  0  0  0
    5.6589   -2.6030    0.6298 H   0  0  0  0  0  0  0  0  0  0  0  0
    6.6537   -1.3401   -0.1314 H   0  0  0  0  0  0  0  0  0  0  0  0
    4.5343   -2.6762   -1.4638 H   0  0  0  0  0  0  0  0  0  0  0  0
  1  2  1  0  0  0  0
  1  9  1  0  0  0  0
  1 10  1  0  0  0  0
  1 11  1  0  0  0  0
  2  6  1  0  0  0  0
  2  3  2  0  0  0  0
  3  4  1  0  0  0  0
  4  5  2  0  0  0  0
  5  6  1  0  0  0  0
  5  7  1  0  0  0  0
  7  8  1  0  0  0  0
  7 12  1  0  0  0  0
  7 13  1  0  0  0  0
  8 14  1  0  0  0  0
M  END
$$$$