887096 887095
 OpenBabel01161410453D

 16 16  0  0  0  0  0  0  0  0999 V2000
    3.8282    0.3725   -1.3498 O   0  0  0  0  0  0  0  0  0  0  0  0
    2.8474   -0.1190   -0.1638 P   0  0  0  0  0  0  0  0  0  0  0  0
    3.3248    1.1197    1.0954 C   0  0  0  0  0  0  0  0  0  0  0  0
    2.9538    2.4694    1.0073 C   0  0  0  0  0  0  0  0  0  0  0  0
    3.3598    3.3883    1.9792 C   0  0  0  0  0  0  0  0  0  0  0  0
    4.1456    2.9705    3.0503 C   0  0  0  0  0  0  0  0  0  0  0  0
    4.5235    1.6335    3.1530 C   0  0  0  0  0  0  0  0  0  0  0  0
    4.1157    0.7144    2.1821 C   0  0  0  0  0  0  0  0  0  0  0  0
    1.5440    0.5883   -0.7928 O   0  0  0  0  0  0  0  0  0  0  0  0
    4.7582    0.3508   -1.0324 H   0  0  0  0  0  0  0  0  0  0  0  0
    2.3377    2.8176    0.1809 H   0  0  0  0  0  0  0  0  0  0  0  0
    3.0576    4.4290    1.8988 H   0  0  0  0  0  0  0  0  0  0  0  0
    4.4585    3.6844    3.8068 H   0  0  0  0  0  0  0  0  0  0  0  0
    5.1323    1.3037    3.9913 H   0  0  0  0  0  0  0  0  0  0  0  0
    4.4182   -0.3252    2.2886 H   0  0  0  0  0  0  0  0  0  0  0  0
    1.7823    0.8307   -1.7137 H   0  0  0  0  0  0  0  0  0  0  0  0
  1  2  1  0  0  0  0
  1 10  1  0  0  0  0
  2  9  1  0  0  0  0
  2  3  1  0  0  0  0
  3  4  2  0  0  0  0
  3  8  1  0  0  0  0
  4  5  1  0  0  0  0
  4 11  1  0  0  0  0
  5  6  2  0  0  0  0
  5 12  1  0  0  0  0
  6  7  1  0  0  0  0
  6 13  1  0  0  0  0
  7  8  2  0  0  0  0
  7 14  1  0  0  0  0
  8 15  1  0  0  0  0
  9 16  1  0  0  0  0
M  END
$$$$