43477502 43477501
 OpenBabel01161410553D

 25 25  0  0  0  0  0  0  0  0999 V2000
    4.5646    0.3895    0.3437 C   0  0  0  0  0  0  0  0  0  0  0  0
    3.8933   -0.7241    0.9125 O   0  0  0  0  0  0  0  0  0  0  0  0
    2.2746   -0.5678    1.3101 Si  0  0  3  0  0  0  0  0  0  0  0  0
    1.5835   -0.0665    0.0943 H   0  0  0  0  0  0  0  0  0  0  0  0
    1.5272   -2.2386    1.7811 C   0  0  0  0  0  0  0  0  0  0  0  0
    0.0642   -2.2259    2.1611 C   0  0  0  0  0  0  0  0  0  0  0  0
   -0.3223   -2.0835    3.5016 C   0  0  0  0  0  0  0  0  0  0  0  0
   -1.6734   -2.0530    3.8503 C   0  0  0  0  0  0  0  0  0  0  0  0
   -2.6515   -2.1660    2.8644 C   0  0  0  0  0  0  0  0  0  0  0  0
   -2.2797   -2.3100    1.5291 C   0  0  0  0  0  0  0  0  0  0  0  0
   -0.9292   -2.3388    1.1777 C   0  0  0  0  0  0  0  0  0  0  0  0
    2.0193    0.6732    2.6746 C   0  0  0  0  0  0  0  0  0  0  0  0
    5.5879    0.0832    0.1039 H   0  0  0  0  0  0  0  0  0  0  0  0
    4.6213    1.2216    1.0546 H   0  0  0  0  0  0  0  0  0  0  0  0
    4.0837    0.7162   -0.5854 H   0  0  0  0  0  0  0  0  0  0  0  0
    2.1095   -2.6571    2.6114 H   0  0  0  0  0  0  0  0  0  0  0  0
    1.6709   -2.9333    0.9441 H   0  0  0  0  0  0  0  0  0  0  0  0
    0.4276   -1.9955    4.2848 H   0  0  0  0  0  0  0  0  0  0  0  0
   -1.9627   -1.9421    4.8920 H   0  0  0  0  0  0  0  0  0  0  0  0
   -3.7032   -2.1439    3.1366 H   0  0  0  0  0  0  0  0  0  0  0  0
   -3.0421   -2.4003    0.7599 H   0  0  0  0  0  0  0  0  0  0  0  0
   -0.6568   -2.4519    0.1302 H   0  0  0  0  0  0  0  0  0  0  0  0
    2.5188    0.3511    3.5935 H   0  0  0  0  0  0  0  0  0  0  0  0
    0.9555    0.8048    2.8949 H   0  0  0  0  0  0  0  0  0  0  0  0
    2.4241    1.6506    2.3949 H   0  0  0  0  0  0  0  0  0  0  0  0
  1  2  1  0  0  0  0
  1 13  1  0  0  0  0
  1 14  1  0  0  0  0
  1 15  1  0  0  0  0
  2  3  1  0  0  0  0
  3 12  1  0  0  0  0
  3  5  1  0  0  0  0
  3  4  1  0  0  0  0
  5  6  1  0  0  0  0
  5 16  1  0  0  0  0
  5 17  1  0  0  0  0
  6  7  2  0  0  0  0
  6 11  1  0  0  0  0
  7  8  1  0  0  0  0
  7 18  1  0  0  0  0
  8  9  2  0  0  0  0
  8 19  1  0  0  0  0
  9 10  1  0  0  0  0
  9 20  1  0  0  0  0
 10 11  2  0  0  0  0
 10 21  1  0  0  0  0
 11 22  1  0  0  0  0
 12 23  1  0  0  0  0
 12 24  1  0  0  0  0
 12 25  1  0  0  0  0
M  END
$$$$