2341775 2341774
 OpenBabel01161410133D

 29 28  0  0  0  0  0  0  0  0999 V2000
    2.8124    6.3523    2.3630 F   0  0  0  0  0  0  0  0  0  0  0  0
    2.4739    7.0282    1.2317 C   0  0  0  0  0  0  0  0  0  0  0  0
    2.5212    6.1078    0.0233 C   0  0  0  0  0  0  0  0  0  0  0  0
    1.5774    4.9188    0.1855 C   0  0  0  0  0  0  0  0  0  0  0  0
    1.6434    4.0648   -0.9690 O   0  0  0  0  0  0  0  0  0  0  0  0
    0.7910    2.9356   -0.8480 C   0  0  0  0  0  0  0  0  0  0  0  0
   -0.5852    3.2844   -0.8354 O   0  0  0  0  0  0  0  0  0  0  0  0
   -0.9968    3.8221   -2.0849 C   0  0  0  0  0  0  0  0  0  0  0  0
   -2.3749    4.1804   -2.0437 O   0  0  0  0  0  0  0  0  0  0  0  0
   -3.2260    3.0410   -1.8629 C   0  0  0  0  0  0  0  0  0  0  0  0
   -4.6982    3.4532   -1.8543 C   0  0  0  0  0  0  0  0  0  0  0  0
   -5.5802    2.2472   -1.5640 C   0  0  0  0  0  0  0  0  0  0  0  0
   -6.8979    2.5617   -1.6692 F   0  0  0  0  0  0  0  0  0  0  0  0
   -5.3490    1.2460   -2.4544 F   0  0  0  0  0  0  0  0  0  0  0  0
   -4.9091    4.4081   -0.9080 F   0  0  0  0  0  0  0  0  0  0  0  0
   -5.0240    4.0039   -3.0539 F   0  0  0  0  0  0  0  0  0  0  0  0
    2.2006    6.8113   -1.0986 F   0  0  0  0  0  0  0  0  0  0  0  0
    3.7981    5.6668   -0.1594 F   0  0  0  0  0  0  0  0  0  0  0  0
    1.2132    7.4938    1.4367 F   0  0  0  0  0  0  0  0  0  0  0  0
    3.1481    7.8813    1.1196 H   0  0  0  0  0  0  0  0  0  0  0  0
    0.5496    5.2790    0.3008 H   0  0  0  0  0  0  0  0  0  0  0  0
    1.8627    4.3344    1.0675 H   0  0  0  0  0  0  0  0  0  0  0  0
    1.0204    2.3942    0.0765 H   0  0  0  0  0  0  0  0  0  0  0  0
    0.9954    2.2522   -1.6801 H   0  0  0  0  0  0  0  0  0  0  0  0
   -0.8264    3.1037   -2.8955 H   0  0  0  0  0  0  0  0  0  0  0  0
   -0.4368    4.7372   -2.3015 H   0  0  0  0  0  0  0  0  0  0  0  0
   -2.9779    2.5639   -0.9080 H   0  0  0  0  0  0  0  0  0  0  0  0
   -3.0433    2.3353   -2.6812 H   0  0  0  0  0  0  0  0  0  0  0  0
   -5.4109    1.8587   -0.5551 H   0  0  0  0  0  0  0  0  0  0  0  0
  1  2  1  0  0  0  0
  2 19  1  0  0  0  0
  2  3  1  0  0  0  0
  2 20  1  0  0  0  0
  3 18  1  0  0  0  0
  3 17  1  0  0  0  0
  3  4  1  0  0  0  0
  4  5  1  0  0  0  0
  4 21  1  0  0  0  0
  4 22  1  0  0  0  0
  5  6  1  0  0  0  0
  6  7  1  0  0  0  0
  6 23  1  0  0  0  0
  6 24  1  0  0  0  0
  7  8  1  0  0  0  0
  8  9  1  0  0  0  0
  8 25  1  0  0  0  0
  8 26  1  0  0  0  0
  9 10  1  0  0  0  0
 10 11  1  0  0  0  0
 10 27  1  0  0  0  0
 10 28  1  0  0  0  0
 11 16  1  0  0  0  0
 11 15  1  0  0  0  0
 11 12  1  0  0  0  0
 12 14  1  0  0  0  0
 12 13  1  0  0  0  0
 12 29  1  0  0  0  0
M  END
$$$$