6878388 6878387
 OpenBabel01161410403D

 11 10  0  0  0  0  0  0  0  0999 V2000
    2.4876    1.3596   -1.0150 Cl  0  0  0  0  0  0  0  0  0  0  0  0
    2.5229   -0.1041    0.0290 C   0  0  0  0  0  0  0  0  0  0  0  0
    3.4488   -1.2244   -0.5219 C   0  0  0  0  0  0  0  0  0  0  0  0
    3.0650   -1.6231   -1.9759 C   0  0  0  0  0  0  0  0  0  0  0  0
    4.0706   -2.9494   -2.6616 Cl  0  0  0  0  0  0  0  0  0  0  0  0
    1.3447   -2.1162   -2.1408 Cl  0  0  0  0  0  0  0  0  0  0  0  0
    5.1882   -0.6793   -0.4957 Cl  0  0  0  0  0  0  0  0  0  0  0  0
    3.3478   -2.6727    0.5799 Cl  0  0  0  0  0  0  0  0  0  0  0  0
    2.9384    0.4385    1.6950 Cl  0  0  0  0  0  0  0  0  0  0  0  0
    1.4880   -0.4501    0.0955 H   0  0  0  0  0  0  0  0  0  0  0  0
    3.2040   -0.7807   -2.6601 H   0  0  0  0  0  0  0  0  0  0  0  0
  1  2  1  0  0  0  0
  2  9  1  0  0  0  0
  2  3  1  0  0  0  0
  2 10  1  0  0  0  0
  3  8  1  0  0  0  0
  3  7  1  0  0  0  0
  3  4  1  0  0  0  0
  4  6  1  0  0  0  0
  4  5  1  0  0  0  0
  4 11  1  0  0  0  0
M  END
$$$$