32447751 32447750
 OpenBabel01161410503D

 20 21  0  0  0  0  0  0  0  0999 V2000
    1.1280    0.1431   -0.0122 Cl  0  0  0  0  0  0  0  0  0  0  0  0
    2.8361   -0.0399   -0.0201 C   0  0  0  0  0  0  0  0  0  0  0  0
    3.5023    1.1331   -0.0055 N   0  0  0  0  0  0  0  0  0  0  0  0
    4.8669    1.1308    0.0032 N   0  0  0  0  0  0  0  0  0  0  0  0
    5.5287   -0.0450    0.0167 C   0  0  0  0  0  0  0  0  0  0  0  0
    4.8848   -1.2813    0.0234 C   0  0  0  0  0  0  0  0  0  0  0  0
    3.4756   -1.2786   -0.0281 C   0  0  0  0  0  0  0  0  0  0  0  0
    2.6883   -2.5654   -0.0297 C   0  0  0  0  0  0  0  0  0  0  0  0
    3.5238   -3.7910   -0.3942 C   0  0  0  0  0  0  0  0  0  0  0  0
    4.8275   -3.7936    0.3876 C   0  0  0  0  0  0  0  0  0  0  0  0
    5.6673   -2.5710    0.0235 C   0  0  0  0  0  0  0  0  0  0  0  0
    7.2375    0.1321    0.0089 Cl  0  0  0  0  0  0  0  0  0  0  0  0
    2.2609   -2.7061    0.9711 H   0  0  0  0  0  0  0  0  0  0  0  0
    1.8588   -2.5043   -0.7435 H   0  0  0  0  0  0  0  0  0  0  0  0
    2.9525   -4.7019   -0.1827 H   0  0  0  0  0  0  0  0  0  0  0  0
    3.7398   -3.7897   -1.4703 H   0  0  0  0  0  0  0  0  0  0  0  0
    5.3952   -4.7065    0.1756 H   0  0  0  0  0  0  0  0  0  0  0  0
    4.6113   -3.7921    1.4636 H   0  0  0  0  0  0  0  0  0  0  0  0
    6.0936   -2.7124   -0.9776 H   0  0  0  0  0  0  0  0  0  0  0  0
    6.4973   -2.5136    0.7370 H   0  0  0  0  0  0  0  0  0  0  0  0
  1  2  1  0  0  0  0
  2  3  2  0  0  0  0
  2  7  1  0  0  0  0
  3  4  1  0  0  0  0
  4  5  2  0  0  0  0
  5  6  1  0  0  0  0
  5 12  1  0  0  0  0
  6 11  1  0  0  0  0
  6  7  2  0  0  0  0
  7  8  1  0  0  0  0
  8  9  1  0  0  0  0
  8 13  1  0  0  0  0
  8 14  1  0  0  0  0
  9 10  1  0  0  0  0
  9 15  1  0  0  0  0
  9 16  1  0  0  0  0
 10 11  1  0  0  0  0
 10 17  1  0  0  0  0
 10 18  1  0  0  0  0
 11 19  1  0  0  0  0
 11 20  1  0  0  0  0
M  END
$$$$