36777536 36777535
 OpenBabel01161410433D

 49 50  0  0  1  0  0  0  0  0999 V2000
    0.8993   -0.5668   -5.2625 C   0  0  0  0  0  0  0  0  0  0  0  0
    1.5278   -1.9322   -5.5245 C   0  0  0  0  0  0  0  0  0  0  0  0
    2.3467   -2.4971   -4.4408 N   0  0  0  0  0  0  0  0  0  0  0  0
    1.5917   -2.7555   -3.1924 C   0  0  0  0  0  0  0  0  0  0  0  0
    0.4427   -3.7666   -3.3433 C   0  0  0  0  0  0  0  0  0  0  0  0
   -0.3049   -4.1055   -1.7080 S   0  0  0  0  0  0  0  0  0  0  0  0
   -1.6473   -5.2625   -2.1990 C   0  0  3  0  0  0  0  0  0  0  0  0
   -1.0881   -6.5259   -2.8961 C   0  0  0  0  0  0  0  0  0  0  0  0
   -2.0197   -7.7286   -2.6854 C   0  0  3  0  0  0  0  0  0  0  0  0
   -3.5153   -7.2906   -2.6272 C   0  0  0  0  0  0  0  0  0  0  0  0
   -3.2102   -6.9637   -1.1305 C   0  0  3  0  0  0  0  0  0  0  0  0
   -2.5533   -5.5744   -0.9688 C   0  0  3  0  0  0  0  0  0  0  0  0
   -3.6512   -4.5168   -0.8036 C   0  0  0  0  0  0  0  0  0  0  0  0
   -2.1898   -8.1761   -1.1795 C   0  0  0  0  0  0  0  0  0  0  0  0
   -0.9513   -8.1057   -0.2796 C   0  0  0  0  0  0  0  0  0  0  0  0
   -2.8259   -9.5663   -0.9866 C   0  0  0  0  0  0  0  0  0  0  0  0
    3.5534   -1.7092   -4.1278 C   0  0  0  0  0  0  0  0  0  0  0  0
    4.4897   -1.4957   -5.3131 C   0  0  0  0  0  0  0  0  0  0  0  0
    0.3489   -0.2387   -6.1502 H   0  0  0  0  0  0  0  0  0  0  0  0
    1.6543    0.1951   -5.0461 H   0  0  0  0  0  0  0  0  0  0  0  0
    0.1888   -0.6007   -4.4316 H   0  0  0  0  0  0  0  0  0  0  0  0
    2.1273   -1.8722   -6.4408 H   0  0  0  0  0  0  0  0  0  0  0  0
    0.7325   -2.6392   -5.7857 H   0  0  0  0  0  0  0  0  0  0  0  0
    1.2152   -1.8144   -2.7709 H   0  0  0  0  0  0  0  0  0  0  0  0
    2.2937   -3.1691   -2.4556 H   0  0  0  0  0  0  0  0  0  0  0  0
    0.8290   -4.6990   -3.7652 H   0  0  0  0  0  0  0  0  0  0  0  0
   -0.3427   -3.3754   -3.9966 H   0  0  0  0  0  0  0  0  0  0  0  0
   -2.2531   -4.7224   -2.9380 H   0  0  0  0  0  0  0  0  0  0  0  0
   -0.0786   -6.7822   -2.5550 H   0  0  0  0  0  0  0  0  0  0  0  0
   -1.0055   -6.3267   -3.9724 H   0  0  0  0  0  0  0  0  0  0  0  0
   -1.7995   -8.5436   -3.3826 H   0  0  0  0  0  0  0  0  0  0  0  0
   -3.8146   -6.4591   -3.2721 H   0  0  0  0  0  0  0  0  0  0  0  0
   -4.2453   -8.0900   -2.7927 H   0  0  0  0  0  0  0  0  0  0  0  0
   -4.0462   -7.1213   -0.4390 H   0  0  0  0  0  0  0  0  0  0  0  0
   -1.9713   -5.5762   -0.0389 H   0  0  0  0  0  0  0  0  0  0  0  0
   -4.3185   -4.4932   -1.6718 H   0  0  0  0  0  0  0  0  0  0  0  0
   -3.2248   -3.5182   -0.6714 H   0  0  0  0  0  0  0  0  0  0  0  0
   -4.2674   -4.7369    0.0754 H   0  0  0  0  0  0  0  0  0  0  0  0
   -0.4156   -7.1566   -0.3430 H   0  0  0  0  0  0  0  0  0  0  0  0
   -0.2363   -8.8923   -0.5472 H   0  0  0  0  0  0  0  0  0  0  0  0
   -1.2296   -8.2463    0.7704 H   0  0  0  0  0  0  0  0  0  0  0  0
   -3.7306   -9.7196   -1.5804 H   0  0  0  0  0  0  0  0  0  0  0  0
   -3.1006   -9.7198    0.0631 H   0  0  0  0  0  0  0  0  0  0  0  0
   -2.1177  -10.3539   -1.2689 H   0  0  0  0  0  0  0  0  0  0  0  0
    4.1329   -2.2481   -3.3675 H   0  0  0  0  0  0  0  0  0  0  0  0
    3.2926   -0.7378   -3.6911 H   0  0  0  0  0  0  0  0  0  0  0  0
    4.7179   -2.4426   -5.8143 H   0  0  0  0  0  0  0  0  0  0  0  0
    5.4346   -1.0644   -4.9673 H   0  0  0  0  0  0  0  0  0  0  0  0
    4.0654   -0.8037   -6.0470 H   0  0  0  0  0  0  0  0  0  0  0  0
  1  2  1  0  0  0  0
  1 19  1  0  0  0  0
  1 20  1  0  0  0  0
  1 21  1  0  0  0  0
  2  3  1  0  0  0  0
  2 22  1  0  0  0  0
  2 23  1  0  0  0  0
  3 17  1  0  0  0  0
  3  4  1  0  0  0  0
  4  5  1  0  0  0  0
  4 24  1  0  0  0  0
  4 25  1  0  0  0  0
  5  6  1  0  0  0  0
  5 26  1  0  0  0  0
  5 27  1  0  0  0  0
  6  7  1  0  0  0  0
  7 12  1  0  0  0  0
  7  8  1  0  0  0  0
  7 28  1  0  0  0  0
  8  9  1  0  0  0  0
  8 29  1  0  0  0  0
  8 30  1  0  0  0  0
  9 10  1  0  0  0  0
  9 14  1  0  0  0  0
  9 31  1  0  0  0  0
 10 11  1  0  0  0  0
 10 32  1  0  0  0  0
 10 33  1  0  0  0  0
 11 12  1  0  0  0  0
 11 14  1  0  0  0  0
 11 34  1  0  0  0  0
 12 13  1  0  0  0  0
 12 35  1  0  0  0  0
 13 36  1  0  0  0  0
 13 37  1  0  0  0  0
 13 38  1  0  0  0  0
 14 16  1  0  0  0  0
 14 15  1  0  0  0  0
 15 39  1  0  0  0  0
 15 40  1  0  0  0  0
 15 41  1  0  0  0  0
 16 42  1  0  0  0  0
 16 43  1  0  0  0  0
 16 44  1  0  0  0  0
 17 18  1  0  0  0  0
 17 45  1  0  0  0  0
 17 46  1  0  0  0  0
 18 47  1  0  0  0  0
 18 48  1  0  0  0  0
 18 49  1  0  0  0  0
M  END
$$$$