13164110 13164109
 OpenBabel01161410403D

 23 23  0  0  0  0  0  0  0  0999 V2000
    4.1591   -0.8044    0.9667 S   0  0  0  0  0  0  0  0  0  0  0  0
    2.7985   -0.1051   -0.0081 C   0  0  0  0  0  0  0  0  0  0  0  0
    3.1852    1.1788   -0.6950 C   0  0  0  0  0  0  0  0  0  0  0  0
    2.7077    2.4110   -0.2268 C   0  0  0  0  0  0  0  0  0  0  0  0
    3.0550    3.6109   -0.8659 C   0  0  0  0  0  0  0  0  0  0  0  0
    2.5123    4.9260   -0.3713 C   0  0  0  0  0  0  0  0  0  0  0  0
    0.9088    5.3208   -1.1220 S   0  0  0  0  0  0  0  0  0  0  0  0
    3.8917    3.5647   -1.9906 C   0  0  0  0  0  0  0  0  0  0  0  0
    4.3903    2.3460   -2.4663 C   0  0  0  0  0  0  0  0  0  0  0  0
    4.0259    1.1601   -1.8183 C   0  0  0  0  0  0  0  0  0  0  0  0
    5.2772    2.3192   -3.6760 C   0  0  0  0  0  0  0  0  0  0  0  0
    3.5100   -1.9126    1.3508 H   0  0  0  0  0  0  0  0  0  0  0  0
    1.9467    0.0563    0.6613 H   0  0  0  0  0  0  0  0  0  0  0  0
    2.4772   -0.8392   -0.7552 H   0  0  0  0  0  0  0  0  0  0  0  0
    2.0558    2.4385    0.6422 H   0  0  0  0  0  0  0  0  0  0  0  0
    3.2165    5.7343   -0.5968 H   0  0  0  0  0  0  0  0  0  0  0  0
    2.3980    4.9039    0.7179 H   0  0  0  0  0  0  0  0  0  0  0  0
    1.3165    5.2237   -2.3957 H   0  0  0  0  0  0  0  0  0  0  0  0
    4.1618    4.4871   -2.5017 H   0  0  0  0  0  0  0  0  0  0  0  0
    4.4048    0.2076   -2.1861 H   0  0  0  0  0  0  0  0  0  0  0  0
    5.7345    1.3341   -3.8156 H   0  0  0  0  0  0  0  0  0  0  0  0
    6.0889    3.0462   -3.5684 H   0  0  0  0  0  0  0  0  0  0  0  0
    4.6963    2.5581   -4.5721 H   0  0  0  0  0  0  0  0  0  0  0  0
  1  2  1  0  0  0  0
  1 12  1  0  0  0  0
  2  3  1  0  0  0  0
  2 13  1  0  0  0  0
  2 14  1  0  0  0  0
  3 10  1  0  0  0  0
  3  4  2  0  0  0  0
  4  5  1  0  0  0  0
  4 15  1  0  0  0  0
  5  8  2  0  0  0  0
  5  6  1  0  0  0  0
  6  7  1  0  0  0  0
  6 16  1  0  0  0  0
  6 17  1  0  0  0  0
  7 18  1  0  0  0  0
  8  9  1  0  0  0  0
  8 19  1  0  0  0  0
  9 10  2  0  0  0  0
  9 11  1  0  0  0  0
 10 20  1  0  0  0  0
 11 21  1  0  0  0  0
 11 22  1  0  0  0  0
 11 23  1  0  0  0  0
M  END
$$$$