23740547 23740546
 OpenBabel01161410203D

 26 26  0  0  0  0  0  0  0  0999 V2000
    2.8057   -1.3303    0.0779 C   0  0  0  0  0  0  0  0  0  0  0  0
    2.4333    0.0329   -0.0887 O   0  0  0  0  0  0  0  0  0  0  0  0
    2.9906    0.9266    0.7795 C   0  0  0  0  0  0  0  0  0  0  0  0
    2.6476    2.2612    0.5961 C   0  0  0  0  0  0  0  0  0  0  0  0
    3.1003    3.2860    1.3589 N   0  0  0  0  0  0  0  0  0  0  0  0
    3.9444    2.9593    2.3608 C   0  0  0  0  0  0  0  0  0  0  0  0
    4.3468    1.6598    2.6468 C   0  0  0  0  0  0  0  0  0  0  0  0
    3.8561    0.6311    1.8274 C   0  0  0  0  0  0  0  0  0  0  0  0
    5.2557    1.3674    3.8127 C   0  0  0  0  0  0  0  0  0  0  0  0
    4.6236    0.4708    4.7293 O   0  0  0  0  0  0  0  0  0  0  0  0
    3.5825    1.0828    5.4803 C   0  0  0  0  0  0  0  0  0  0  0  0
    6.4379    0.7730    3.2682 O   0  0  0  0  0  0  0  0  0  0  0  0
    7.4119    0.5013    4.2657 C   0  0  0  0  0  0  0  0  0  0  0  0
    2.2906   -1.9141   -0.6908 H   0  0  0  0  0  0  0  0  0  0  0  0
    2.4860   -1.7104    1.0543 H   0  0  0  0  0  0  0  0  0  0  0  0
    3.8832   -1.4663   -0.0662 H   0  0  0  0  0  0  0  0  0  0  0  0
    1.9715    2.5496   -0.2038 H   0  0  0  0  0  0  0  0  0  0  0  0
    4.2898    3.8048    2.9505 H   0  0  0  0  0  0  0  0  0  0  0  0
    4.1721   -0.3851    2.0440 H   0  0  0  0  0  0  0  0  0  0  0  0
    5.5421    2.2937    4.3293 H   0  0  0  0  0  0  0  0  0  0  0  0
    3.2608    0.3784    6.2496 H   0  0  0  0  0  0  0  0  0  0  0  0
    2.7235    1.3042    4.8414 H   0  0  0  0  0  0  0  0  0  0  0  0
    3.9359    1.9950    5.9691 H   0  0  0  0  0  0  0  0  0  0  0  0
    8.3065    0.1151    3.7699 H   0  0  0  0  0  0  0  0  0  0  0  0
    7.0519   -0.2612    4.9622 H   0  0  0  0  0  0  0  0  0  0  0  0
    7.6798    1.4133    4.8059 H   0  0  0  0  0  0  0  0  0  0  0  0
  1  2  1  0  0  0  0
  1 14  1  0  0  0  0
  1 15  1  0  0  0  0
  1 16  1  0  0  0  0
  2  3  1  0  0  0  0
  3  8  1  0  0  0  0
  3  4  2  0  0  0  0
  4  5  1  0  0  0  0
  4 17  1  0  0  0  0
  5  6  2  0  0  0  0
  6  7  1  0  0  0  0
  6 18  1  0  0  0  0
  7  8  2  0  0  0  0
  7  9  1  0  0  0  0
  8 19  1  0  0  0  0
  9 12  1  0  0  0  0
  9 10  1  0  0  0  0
  9 20  1  0  0  0  0
 10 11  1  0  0  0  0
 11 21  1  0  0  0  0
 11 22  1  0  0  0  0
 11 23  1  0  0  0  0
 12 13  1  0  0  0  0
 13 24  1  0  0  0  0
 13 25  1  0  0  0  0
 13 26  1  0  0  0  0
M  END
$$$$