25054707 25054706
 OpenBabel01161410113D

 33 33  0  0  1  0  0  0  0  0999 V2000
    8.1839    2.5188    2.4634 C   0  0  0  0  0  0  0  0  0  0  0  0
    7.2260    1.9124    1.4500 C   0  0  0  0  0  0  0  0  0  0  0  0
    6.8404    2.9267    0.3707 C   0  0  0  0  0  0  0  0  0  0  0  0
    5.8594    2.3184   -0.6356 C   0  0  0  0  0  0  0  0  0  0  0  0
    5.4067    3.2548   -1.7831 C   0  0  3  0  0  0  0  0  0  0  0  0
    4.5821    4.4300   -1.2518 C   0  0  0  0  0  0  0  0  0  0  0  0
    3.9871    5.1121   -2.2552 F   0  0  0  0  0  0  0  0  0  0  0  0
    3.5958    3.9971   -0.4339 F   0  0  0  0  0  0  0  0  0  0  0  0
    5.3360    5.3084   -0.5589 F   0  0  0  0  0  0  0  0  0  0  0  0
    6.5797    3.7305   -2.6735 C   0  0  0  0  0  0  0  0  0  0  0  0
    7.4251    2.5927   -3.2546 C   0  0  0  0  0  0  0  0  0  0  0  0
    8.1812    3.2680   -4.3864 C   0  0  0  0  0  0  0  0  0  0  0  0
    7.1424    4.1724   -5.0281 C   0  0  0  0  0  0  0  0  0  0  0  0
    6.1468    4.5218   -3.9209 C   0  0  0  0  0  0  0  0  0  0  0  0
    8.4465    1.7803    3.2274 H   0  0  0  0  0  0  0  0  0  0  0  0
    7.7306    3.3799    2.9652 H   0  0  0  0  0  0  0  0  0  0  0  0
    9.1084    2.8512    1.9796 H   0  0  0  0  0  0  0  0  0  0  0  0
    6.3273    1.5624    1.9709 H   0  0  0  0  0  0  0  0  0  0  0  0
    7.6967    1.0367    0.9883 H   0  0  0  0  0  0  0  0  0  0  0  0
    7.7480    3.2654   -0.1404 H   0  0  0  0  0  0  0  0  0  0  0  0
    6.3911    3.7998    0.8546 H   0  0  0  0  0  0  0  0  0  0  0  0
    4.9676    1.9745   -0.0952 H   0  0  0  0  0  0  0  0  0  0  0  0
    6.3045    1.4132   -1.0672 H   0  0  0  0  0  0  0  0  0  0  0  0
    4.7317    2.6587   -2.4135 H   0  0  0  0  0  0  0  0  0  0  0  0
    7.2389    4.3812   -2.0836 H   0  0  0  0  0  0  0  0  0  0  0  0
    6.7882    1.7917   -3.6490 H   0  0  0  0  0  0  0  0  0  0  0  0
    8.1100    2.1592   -2.5196 H   0  0  0  0  0  0  0  0  0  0  0  0
    9.0052    3.8690   -3.9834 H   0  0  0  0  0  0  0  0  0  0  0  0
    8.6010    2.5490   -5.0953 H   0  0  0  0  0  0  0  0  0  0  0  0
    7.5970    5.0645   -5.4697 H   0  0  0  0  0  0  0  0  0  0  0  0
    6.6221    3.6372   -5.8311 H   0  0  0  0  0  0  0  0  0  0  0  0
    6.1516    5.5977   -3.7146 H   0  0  0  0  0  0  0  0  0  0  0  0
    5.1354    4.2532   -4.2458 H   0  0  0  0  0  0  0  0  0  0  0  0
  1  2  1  0  0  0  0
  1 15  1  0  0  0  0
  1 16  1  0  0  0  0
  1 17  1  0  0  0  0
  2  3  1  0  0  0  0
  2 18  1  0  0  0  0
  2 19  1  0  0  0  0
  3  4  1  0  0  0  0
  3 20  1  0  0  0  0
  3 21  1  0  0  0  0
  4  5  1  0  0  0  0
  4 22  1  0  0  0  0
  4 23  1  0  0  0  0
  5 10  1  0  0  0  0
  5  6  1  0  0  0  0
  5 24  1  0  0  0  0
  6  9  1  0  0  0  0
  6  8  1  0  0  0  0
  6  7  1  0  0  0  0
 10 14  1  0  0  0  0
 10 11  1  0  0  0  0
 10 25  1  0  0  0  0
 11 12  1  0  0  0  0
 11 26  1  0  0  0  0
 11 27  1  0  0  0  0
 12 13  1  0  0  0  0
 12 28  1  0  0  0  0
 12 29  1  0  0  0  0
 13 14  1  0  0  0  0
 13 30  1  0  0  0  0
 13 31  1  0  0  0  0
 14 32  1  0  0  0  0
 14 33  1  0  0  0  0
M  END
$$$$