36625025 36625024
 OpenBabel01161409543D

 47 49  0  0  1  0  0  0  0  0999 V2000
    1.0803   -0.4186    0.6411 O   0  0  0  0  0  0  0  0  0  0  0  0
    2.4323   -0.0374    0.9350 C   0  0  3  0  0  0  0  0  0  0  0  0
    2.5502    1.4821    1.1877 C   0  0  0  0  0  0  0  0  0  0  0  0
    2.4327    2.3313   -0.0160 N   0  0  0  0  0  0  0  0  0  0  0  0
    1.1034    2.2633   -0.6698 C   0  0  0  0  0  0  0  0  0  0  0  0
   -0.1171    2.5670    0.1781 C   0  0  0  0  0  0  0  0  0  0  0  0
   -0.1659    3.4119    1.1901 N   0  0  0  0  0  0  0  0  0  0  0  0
   -1.4363    3.4307    1.7384 C   0  0  0  0  0  0  0  0  0  0  0  0
   -2.3743    2.6153    1.1054 C   0  0  0  0  0  0  0  0  0  0  0  0
   -1.6146    1.8058   -0.2089 S   0  0  0  0  0  0  0  0  0  0  0  0
   -3.7062    2.5369    1.5442 C   0  0  0  0  0  0  0  0  0  0  0  0
   -4.0849    3.3018    2.6518 C   0  0  0  0  0  0  0  0  0  0  0  0
   -3.1657    4.1197    3.3015 C   0  0  0  0  0  0  0  0  0  0  0  0
   -1.8423    4.1922    2.8528 C   0  0  0  0  0  0  0  0  0  0  0  0
    2.8145    3.7118    0.2835 C   0  0  0  0  0  0  0  0  0  0  0  0
    2.8752   -0.8186    2.1804 C   0  0  0  0  0  0  0  0  0  0  0  0
    2.7269   -2.2196    1.9057 O   0  0  0  0  0  0  0  0  0  0  0  0
    3.2665   -3.0184    2.9664 C   0  0  0  0  0  0  0  0  0  0  0  0
    3.1368   -4.5101    2.6474 C   0  0  3  0  0  0  0  0  0  0  0  0
    1.7188   -4.9725    2.3440 C   0  0  0  0  0  0  0  0  0  0  0  0
    1.9642   -6.1406    1.4220 C   0  0  0  0  0  0  0  0  0  0  0  0
    3.1375   -5.6425    0.6080 C   0  0  0  0  0  0  0  0  0  0  0  0
    3.9402   -4.8554    1.4974 O   0  0  0  0  0  0  0  0  0  0  0  0
    1.0884   -1.3960    0.6772 H   0  0  0  0  0  0  0  0  0  0  0  0
    3.0463   -0.3351    0.0770 H   0  0  0  0  0  0  0  0  0  0  0  0
    3.5468    1.6569    1.6144 H   0  0  0  0  0  0  0  0  0  0  0  0
    1.8238    1.7864    1.9511 H   0  0  0  0  0  0  0  0  0  0  0  0
    1.0030    1.2773   -1.1385 H   0  0  0  0  0  0  0  0  0  0  0  0
    1.0962    2.9633   -1.5167 H   0  0  0  0  0  0  0  0  0  0  0  0
   -4.4235    1.8980    1.0380 H   0  0  0  0  0  0  0  0  0  0  0  0
   -5.1115    3.2555    3.0087 H   0  0  0  0  0  0  0  0  0  0  0  0
   -3.4741    4.7082    4.1623 H   0  0  0  0  0  0  0  0  0  0  0  0
   -1.1211    4.8285    3.3550 H   0  0  0  0  0  0  0  0  0  0  0  0
    3.8598    3.7503    0.6106 H   0  0  0  0  0  0  0  0  0  0  0  0
    2.2064    4.1710    1.0677 H   0  0  0  0  0  0  0  0  0  0  0  0
    2.7539    4.3361   -0.6146 H   0  0  0  0  0  0  0  0  0  0  0  0
    2.2360   -0.5697    3.0352 H   0  0  0  0  0  0  0  0  0  0  0  0
    3.9193   -0.5921    2.4217 H   0  0  0  0  0  0  0  0  0  0  0  0
    2.7309   -2.7897    3.8945 H   0  0  0  0  0  0  0  0  0  0  0  0
    4.3266   -2.7668    3.0874 H   0  0  0  0  0  0  0  0  0  0  0  0
    3.5421   -5.0869    3.4873 H   0  0  0  0  0  0  0  0  0  0  0  0
    1.1441   -4.2035    1.8148 H   0  0  0  0  0  0  0  0  0  0  0  0
    1.1650   -5.2444    3.2467 H   0  0  0  0  0  0  0  0  0  0  0  0
    2.2587   -7.0196    2.0071 H   0  0  0  0  0  0  0  0  0  0  0  0
    1.0990   -6.4069    0.8091 H   0  0  0  0  0  0  0  0  0  0  0  0
    3.7372   -6.4548    0.1897 H   0  0  0  0  0  0  0  0  0  0  0  0
    2.8061   -4.9932   -0.2094 H   0  0  0  0  0  0  0  0  0  0  0  0
  1  2  1  0  0  0  0
  1 24  1  0  0  0  0
  2 16  1  0  0  0  0
  2  3  1  0  0  0  0
  2 25  1  0  0  0  0
  3  4  1  0  0  0  0
  3 26  1  0  0  0  0
  3 27  1  0  0  0  0
  4 15  1  0  0  0  0
  4  5  1  0  0  0  0
  5  6  1  0  0  0  0
  5 28  1  0  0  0  0
  5 29  1  0  0  0  0
  6  7  2  0  0  0  0
  6 10  1  0  0  0  0
  7  8  1  0  0  0  0
  8 14  1  0  0  0  0
  8  9  2  0  0  0  0
  9 10  1  0  0  0  0
  9 11  1  0  0  0  0
 11 12  2  0  0  0  0
 11 30  1  0  0  0  0
 12 13  1  0  0  0  0
 12 31  1  0  0  0  0
 13 14  2  0  0  0  0
 13 32  1  0  0  0  0
 14 33  1  0  0  0  0
 15 34  1  0  0  0  0
 15 35  1  0  0  0  0
 15 36  1  0  0  0  0
 16 17  1  0  0  0  0
 16 37  1  0  0  0  0
 16 38  1  0  0  0  0
 17 18  1  0  0  0  0
 18 19  1  0  0  0  0
 18 39  1  0  0  0  0
 18 40  1  0  0  0  0
 19 23  1  0  0  0  0
 19 20  1  0  0  0  0
 19 41  1  0  0  0  0
 20 21  1  0  0  0  0
 20 42  1  0  0  0  0
 20 43  1  0  0  0  0
 21 22  1  0  0  0  0
 21 44  1  0  0  0  0
 21 45  1  0  0  0  0
 22 23  1  0  0  0  0
 22 46  1  0  0  0  0
 22 47  1  0  0  0  0
M  END
$$$$