46016201 46016200
 OpenBabel01161410223D

 21 21  0  0  0  0  0  0  0  0999 V2000
    3.6659    0.0545   -1.4291 Cl  0  0  0  0  0  0  0  0  0  0  0  0
    2.5755    0.0312   -0.0266 C   0  0  0  0  0  0  0  0  0  0  0  0
    3.1881    0.7831    1.1282 C   0  0  0  0  0  0  0  0  0  0  0  0
    2.8868    2.1537    1.2638 C   0  0  0  0  0  0  0  0  0  0  0  0
    3.4158    2.9191    2.3092 C   0  0  0  0  0  0  0  0  0  0  0  0
    3.0851    4.3758    2.4460 C   0  0  0  0  0  0  0  0  0  0  0  0
    4.2579    2.3050    3.2368 C   0  0  0  0  0  0  0  0  0  0  0  0
    4.5775    0.9528    3.1121 C   0  0  0  0  0  0  0  0  0  0  0  0
    4.0652    0.1780    2.0556 C   0  0  0  0  0  0  0  0  0  0  0  0
    4.4603   -1.2749    1.9803 C   0  0  0  0  0  0  0  0  0  0  0  0
    3.2604   -2.2886    2.8102 Cl  0  0  0  0  0  0  0  0  0  0  0  0
    2.3569   -1.0089    0.2292 H   0  0  0  0  0  0  0  0  0  0  0  0
    1.6268    0.4864   -0.3307 H   0  0  0  0  0  0  0  0  0  0  0  0
    2.2294    2.6309    0.5376 H   0  0  0  0  0  0  0  0  0  0  0  0
    2.4433    4.7213    1.6290 H   0  0  0  0  0  0  0  0  0  0  0  0
    4.0017    4.9740    2.4265 H   0  0  0  0  0  0  0  0  0  0  0  0
    2.5573    4.5555    3.3881 H   0  0  0  0  0  0  0  0  0  0  0  0
    4.6730    2.8775    4.0635 H   0  0  0  0  0  0  0  0  0  0  0  0
    5.2363    0.5030    3.8532 H   0  0  0  0  0  0  0  0  0  0  0  0
    5.4303   -1.4422    2.4608 H   0  0  0  0  0  0  0  0  0  0  0  0
    4.5575   -1.6202    0.9475 H   0  0  0  0  0  0  0  0  0  0  0  0
  1  2  1  0  0  0  0
  2  3  1  0  0  0  0
  2 12  1  0  0  0  0
  2 13  1  0  0  0  0
  3  4  2  0  0  0  0
  3  9  1  0  0  0  0
  4  5  1  0  0  0  0
  4 14  1  0  0  0  0
  5  7  2  0  0  0  0
  5  6  1  0  0  0  0
  6 15  1  0  0  0  0
  6 16  1  0  0  0  0
  6 17  1  0  0  0  0
  7  8  1  0  0  0  0
  7 18  1  0  0  0  0
  8  9  2  0  0  0  0
  8 19  1  0  0  0  0
  9 10  1  0  0  0  0
 10 11  1  0  0  0  0
 10 20  1  0  0  0  0
 10 21  1  0  0  0  0
M  END
$$$$