36824067 36824066
 OpenBabel01161410503D

 30 31  0  0  0  0  0  0  0  0999 V2000
    1.3220   -3.5224   -2.8002 C   0  0  0  0  0  0  0  0  0  0  0  0
    2.7717   -3.5711   -2.6803 N   0  0  0  0  0  0  0  0  0  0  0  0
    3.2198   -2.8957   -1.4617 C   0  0  0  0  0  0  0  0  0  0  0  0
    4.7267   -2.9015   -1.3447 C   0  0  0  0  0  0  0  0  0  0  0  0
    5.4442   -4.1028   -1.3829 C   0  0  0  0  0  0  0  0  0  0  0  0
    6.8364   -4.1106   -1.2362 C   0  0  0  0  0  0  0  0  0  0  0  0
    7.5579   -2.9225   -1.0309 C   0  0  0  0  0  0  0  0  0  0  0  0
    6.8256   -1.7233   -0.9947 C   0  0  0  0  0  0  0  0  0  0  0  0
    5.4337   -1.7102   -1.1509 C   0  0  0  0  0  0  0  0  0  0  0  0
    9.0263   -2.9339   -0.8463 C   0  0  0  0  0  0  0  0  0  0  0  0
    9.6549   -3.9254   -0.0667 C   0  0  0  0  0  0  0  0  0  0  0  0
   11.0412   -3.9348    0.1176 C   0  0  0  0  0  0  0  0  0  0  0  0
   11.8159   -2.9454   -0.4707 C   0  0  0  0  0  0  0  0  0  0  0  0
   11.2320   -1.9525   -1.2433 C   0  0  0  0  0  0  0  0  0  0  0  0
    9.8464   -1.9499   -1.4322 C   0  0  0  0  0  0  0  0  0  0  0  0
   13.1430   -2.9499   -0.2898 F   0  0  0  0  0  0  0  0  0  0  0  0
    1.0131   -4.0454   -3.7106 H   0  0  0  0  0  0  0  0  0  0  0  0
    0.9576   -2.4917   -2.8643 H   0  0  0  0  0  0  0  0  0  0  0  0
    0.8376   -4.0210   -1.9542 H   0  0  0  0  0  0  0  0  0  0  0  0
    3.1973   -3.1089   -3.4832 H   0  0  0  0  0  0  0  0  0  0  0  0
    2.8088   -3.3922   -0.5739 H   0  0  0  0  0  0  0  0  0  0  0  0
    2.8554   -1.8608   -1.4572 H   0  0  0  0  0  0  0  0  0  0  0  0
    4.9173   -5.0435   -1.5328 H   0  0  0  0  0  0  0  0  0  0  0  0
    7.3527   -5.0667   -1.2917 H   0  0  0  0  0  0  0  0  0  0  0  0
    7.3322   -0.7760   -0.8223 H   0  0  0  0  0  0  0  0  0  0  0  0
    4.9090   -0.7584   -1.1082 H   0  0  0  0  0  0  0  0  0  0  0  0
    9.0635   -4.6985    0.4200 H   0  0  0  0  0  0  0  0  0  0  0  0
   11.5144   -4.7033    0.7192 H   0  0  0  0  0  0  0  0  0  0  0  0
   11.8545   -1.1875   -1.6961 H   0  0  0  0  0  0  0  0  0  0  0  0
    9.4108   -1.1713   -2.0551 H   0  0  0  0  0  0  0  0  0  0  0  0
  1  2  1  0  0  0  0
  1 17  1  0  0  0  0
  1 18  1  0  0  0  0
  1 19  1  0  0  0  0
  2  3  1  0  0  0  0
  2 20  1  0  0  0  0
  3  4  1  0  0  0  0
  3 21  1  0  0  0  0
  3 22  1  0  0  0  0
  4  5  2  0  0  0  0
  4  9  1  0  0  0  0
  5  6  1  0  0  0  0
  5 23  1  0  0  0  0
  6  7  2  0  0  0  0
  6 24  1  0  0  0  0
  7  8  1  0  0  0  0
  7 10  1  0  0  0  0
  8  9  2  0  0  0  0
  8 25  1  0  0  0  0
  9 26  1  0  0  0  0
 10 11  2  0  0  0  0
 10 15  1  0  0  0  0
 11 12  1  0  0  0  0
 11 27  1  0  0  0  0
 12 13  2  0  0  0  0
 12 28  1  0  0  0  0
 13 14  1  0  0  0  0
 13 16  1  0  0  0  0
 14 15  2  0  0  0  0
 14 29  1  0  0  0  0
 15 30  1  0  0  0  0
M  END
$$$$