28216620 28216619
 OpenBabel01161410403D

 26 28  0  0  0  0  0  0  0  0999 V2000
    0.8034   -0.0487   -0.0496 C   0  0  0  0  0  0  0  0  0  0  0  0
    2.2618   -0.1029   -0.0496 N   0  0  0  0  0  0  0  0  0  0  0  0
    2.9665    1.1215   -0.0493 C   0  0  0  0  0  0  0  0  0  0  0  0
    2.3558    2.3860   -0.0492 C   0  0  0  0  0  0  0  0  0  0  0  0
    3.1172    3.5620   -0.0489 C   0  0  0  0  0  0  0  0  0  0  0  0
    4.5072    3.4986   -0.0488 C   0  0  0  0  0  0  0  0  0  0  0  0
    5.1370    2.2585   -0.0489 C   0  0  0  0  0  0  0  0  0  0  0  0
    4.3729    1.0868   -0.0492 C   0  0  0  0  0  0  0  0  0  0  0  0
    5.0885   -0.0906   -0.0492 O   0  0  0  0  0  0  0  0  0  0  0  0
    4.3768   -1.2728   -0.0491 C   0  0  0  0  0  0  0  0  0  0  0  0
    2.9668   -1.3181   -0.0493 C   0  0  0  0  0  0  0  0  0  0  0  0
    2.3787   -2.5915   -0.0492 C   0  0  0  0  0  0  0  0  0  0  0  0
    3.1561   -3.7592   -0.0489 C   0  0  0  0  0  0  0  0  0  0  0  0
    4.5442   -3.6819   -0.0488 C   0  0  0  0  0  0  0  0  0  0  0  0
    5.1570   -2.4350   -0.0489 C   0  0  0  0  0  0  0  0  0  0  0  0
    0.3059   -1.0195   -0.0505 H   0  0  0  0  0  0  0  0  0  0  0  0
    0.4392    0.4754   -0.9413 H   0  0  0  0  0  0  0  0  0  0  0  0
    0.4392    0.4739    0.8431 H   0  0  0  0  0  0  0  0  0  0  0  0
    1.2759    2.4911   -0.0492 H   0  0  0  0  0  0  0  0  0  0  0  0
    2.6186    4.5280   -0.0487 H   0  0  0  0  0  0  0  0  0  0  0  0
    5.0974    4.4108   -0.0486 H   0  0  0  0  0  0  0  0  0  0  0  0
    6.2215    2.1970   -0.0488 H   0  0  0  0  0  0  0  0  0  0  0  0
    1.3041   -2.7277   -0.0493 H   0  0  0  0  0  0  0  0  0  0  0  0
    2.6682   -4.7309   -0.0489 H   0  0  0  0  0  0  0  0  0  0  0  0
    5.1450   -4.5870   -0.0486 H   0  0  0  0  0  0  0  0  0  0  0  0
    6.2406   -2.3590   -0.0488 H   0  0  0  0  0  0  0  0  0  0  0  0
  1  2  1  0  0  0  0
  1 16  1  0  0  0  0
  1 17  1  0  0  0  0
  1 18  1  0  0  0  0
  2 11  1  0  0  0  0
  2  3  1  0  0  0  0
  3  8  1  0  0  0  0
  3  4  2  0  0  0  0
  4  5  1  0  0  0  0
  4 19  1  0  0  0  0
  5  6  2  0  0  0  0
  5 20  1  0  0  0  0
  6  7  1  0  0  0  0
  6 21  1  0  0  0  0
  7  8  2  0  0  0  0
  7 22  1  0  0  0  0
  8  9  1  0  0  0  0
  9 10  1  0  0  0  0
 10 15  1  0  0  0  0
 10 11  2  0  0  0  0
 11 12  1  0  0  0  0
 12 13  2  0  0  0  0
 12 23  1  0  0  0  0
 13 14  1  0  0  0  0
 13 24  1  0  0  0  0
 14 15  2  0  0  0  0
 14 25  1  0  0  0  0
 15 26  1  0  0  0  0
M  END
$$$$