509266 509265
 OpenBabel01161410443D

 16 16  0  0  0  0  0  0  0  0999 V2000
    0.9148   -0.0241   -0.0520 P   0  0  0  0  0  0  0  0  0  0  0  0
    2.7458   -0.1045   -0.0936 C   0  0  0  0  0  0  0  0  0  0  0  0
    3.4451    1.1180   -0.0698 C   0  0  0  0  0  0  0  0  0  0  0  0
    4.8400    1.1531   -0.0888 C   0  0  0  0  0  0  0  0  0  0  0  0
    5.5614   -0.0328   -0.1359 C   0  0  0  0  0  0  0  0  0  0  0  0
    4.8875   -1.2539   -0.1663 C   0  0  0  0  0  0  0  0  0  0  0  0
    3.4803   -1.3104   -0.1467 C   0  0  0  0  0  0  0  0  0  0  0  0
    2.7308   -2.9817   -0.2028 P   0  0  0  0  0  0  0  0  0  0  0  0
    0.7618    1.2716    0.4954 H   0  0  0  0  0  0  0  0  0  0  0  0
    0.7243   -0.7167    1.1666 H   0  0  0  0  0  0  0  0  0  0  0  0
    2.9089    2.0646   -0.0380 H   0  0  0  0  0  0  0  0  0  0  0  0
    5.3601    2.1074   -0.0696 H   0  0  0  0  0  0  0  0  0  0  0  0
    6.6480   -0.0110   -0.1545 H   0  0  0  0  0  0  0  0  0  0  0  0
    5.4770   -2.1682   -0.2118 H   0  0  0  0  0  0  0  0  0  0  0  0
    1.3834   -2.6014   -0.0004 H   0  0  0  0  0  0  0  0  0  0  0  0
    2.9735   -3.3399    1.1441 H   0  0  0  0  0  0  0  0  0  0  0  0
  1  2  1  0  0  0  0
  1  9  1  0  0  0  0
  1 10  1  0  0  0  0
  2  3  2  0  0  0  0
  2  7  1  0  0  0  0
  3  4  1  0  0  0  0
  3 11  1  0  0  0  0
  4  5  2  0  0  0  0
  4 12  1  0  0  0  0
  5  6  1  0  0  0  0
  5 13  1  0  0  0  0
  6  7  2  0  0  0  0
  6 14  1  0  0  0  0
  7  8  1  0  0  0  0
  8 15  1  0  0  0  0
  8 16  1  0  0  0  0
M  END
$$$$