6189051 6189050
 OpenBabel01161410423D

 29 28  0  0  0  0  0  0  0  0999 V2000
    1.7435    0.2770    2.9172 C   0  0  0  0  0  0  0  0  0  0  0  0
    2.1367    0.4317    1.4464 C   0  0  0  0  0  0  0  0  0  0  0  0
    2.9211    1.7420    1.2516 C   0  0  0  0  0  0  0  0  0  0  0  0
    3.2235    2.0602   -0.2172 C   0  0  0  0  0  0  0  0  0  0  0  0
    3.9039    3.4269   -0.3568 C   0  0  0  0  0  0  0  0  0  0  0  0
    4.3263    3.7583   -1.7993 C   0  0  0  0  0  0  0  0  0  0  0  0
    3.1322    3.8628   -2.7490 C   0  0  0  0  0  0  0  0  0  0  0  0
    5.1166    5.0695   -1.8192 C   0  0  0  0  0  0  0  0  0  0  0  0
    2.9286   -0.7955    0.9928 C   0  0  0  0  0  0  0  0  0  0  0  0
    1.1574   -0.6359    3.0708 H   0  0  0  0  0  0  0  0  0  0  0  0
    1.1318    1.1234    3.2481 H   0  0  0  0  0  0  0  0  0  0  0  0
    2.6275    0.2246    3.5625 H   0  0  0  0  0  0  0  0  0  0  0  0
    1.2134    0.4820    0.8559 H   0  0  0  0  0  0  0  0  0  0  0  0
    3.8611    1.6995    1.8164 H   0  0  0  0  0  0  0  0  0  0  0  0
    2.3375    2.5698    1.6752 H   0  0  0  0  0  0  0  0  0  0  0  0
    2.2860    2.0466   -0.7839 H   0  0  0  0  0  0  0  0  0  0  0  0
    3.8782    1.2916   -0.6426 H   0  0  0  0  0  0  0  0  0  0  0  0
    4.7946    3.4411    0.2847 H   0  0  0  0  0  0  0  0  0  0  0  0
    3.2323    4.2080    0.0217 H   0  0  0  0  0  0  0  0  0  0  0  0
    4.9875    2.9629   -2.1654 H   0  0  0  0  0  0  0  0  0  0  0  0
    2.3986    4.5907   -2.3863 H   0  0  0  0  0  0  0  0  0  0  0  0
    2.6284    2.8978   -2.8628 H   0  0  0  0  0  0  0  0  0  0  0  0
    3.4551    4.1773   -3.7474 H   0  0  0  0  0  0  0  0  0  0  0  0
    4.5072    5.9066   -1.4612 H   0  0  0  0  0  0  0  0  0  0  0  0
    5.4549    5.3059   -2.8337 H   0  0  0  0  0  0  0  0  0  0  0  0
    6.0042    4.9988   -1.1812 H   0  0  0  0  0  0  0  0  0  0  0  0
    3.8947   -0.8567    1.5056 H   0  0  0  0  0  0  0  0  0  0  0  0
    3.1147   -0.7743   -0.0851 H   0  0  0  0  0  0  0  0  0  0  0  0
    2.3743   -1.7161    1.2065 H   0  0  0  0  0  0  0  0  0  0  0  0
  1  2  1  0  0  0  0
  1 10  1  0  0  0  0
  1 11  1  0  0  0  0
  1 12  1  0  0  0  0
  2  9  1  0  0  0  0
  2  3  1  0  0  0  0
  2 13  1  0  0  0  0
  3  4  1  0  0  0  0
  3 14  1  0  0  0  0
  3 15  1  0  0  0  0
  4  5  1  0  0  0  0
  4 16  1  0  0  0  0
  4 17  1  0  0  0  0
  5  6  1  0  0  0  0
  5 18  1  0  0  0  0
  5 19  1  0  0  0  0
  6  8  1  0  0  0  0
  6  7  1  0  0  0  0
  6 20  1  0  0  0  0
  7 21  1  0  0  0  0
  7 22  1  0  0  0  0
  7 23  1  0  0  0  0
  8 24  1  0  0  0  0
  8 25  1  0  0  0  0
  8 26  1  0  0  0  0
  9 27  1  0  0  0  0
  9 28  1  0  0  0  0
  9 29  1  0  0  0  0
M  END
$$$$