10436336 10436335
 OpenBabel01161410553D

 26 26  0  0  0  0  0  0  0  0999 V2000
    0.8323    0.0408    0.0733 C   0  0  0  0  0  0  0  0  0  0  0  0
    2.6807    0.0360   -0.0651 Si  0  0  0  0  0  0  0  0  0  0  0  0
    3.2303    0.1732   -1.8436 C   0  0  0  0  0  0  0  0  0  0  0  0
    3.4641    1.4502    0.9579 C   0  0  0  0  0  0  0  0  0  0  0  0
    4.8614    0.9581    1.3457 C   0  0  0  0  0  0  0  0  0  0  0  0
    4.7083   -0.9410    1.5800 Si  0  0  0  0  0  0  0  0  0  0  0  0
    3.3449   -1.4026    0.6230 N   0  0  0  0  0  0  0  0  0  0  0  0
    4.3976   -1.3424    3.3689 C   0  0  0  0  0  0  0  0  0  0  0  0
    6.2352   -1.7918    0.9423 C   0  0  0  0  0  0  0  0  0  0  0  0
    0.5113   -0.0454    1.1156 H   0  0  0  0  0  0  0  0  0  0  0  0
    0.3932   -0.7931   -0.4832 H   0  0  0  0  0  0  0  0  0  0  0  0
    0.4127    0.9676   -0.3300 H   0  0  0  0  0  0  0  0  0  0  0  0
    4.3222    0.1721   -1.9208 H   0  0  0  0  0  0  0  0  0  0  0  0
    2.8626    1.1012   -2.2918 H   0  0  0  0  0  0  0  0  0  0  0  0
    2.8487   -0.6636   -2.4362 H   0  0  0  0  0  0  0  0  0  0  0  0
    2.8526    1.6135    1.8532 H   0  0  0  0  0  0  0  0  0  0  0  0
    3.5068    2.3904    0.3969 H   0  0  0  0  0  0  0  0  0  0  0  0
    5.5750    1.1514    0.5358 H   0  0  0  0  0  0  0  0  0  0  0  0
    5.2279    1.4525    2.2504 H   0  0  0  0  0  0  0  0  0  0  0  0
    3.6178   -2.0554   -0.1083 H   0  0  0  0  0  0  0  0  0  0  0  0
    3.5045   -0.8300    3.7404 H   0  0  0  0  0  0  0  0  0  0  0  0
    5.2441   -1.0312    3.9887 H   0  0  0  0  0  0  0  0  0  0  0  0
    4.2545   -2.4174    3.5122 H   0  0  0  0  0  0  0  0  0  0  0  0
    6.4006   -1.5619   -0.1151 H   0  0  0  0  0  0  0  0  0  0  0  0
    6.1494   -2.8783    1.0409 H   0  0  0  0  0  0  0  0  0  0  0  0
    7.1218   -1.4719    1.4980 H   0  0  0  0  0  0  0  0  0  0  0  0
  1  2  1  0  0  0  0
  1 10  1  0  0  0  0
  1 11  1  0  0  0  0
  1 12  1  0  0  0  0
  2  7  1  0  0  0  0
  2  4  1  0  0  0  0
  2  3  1  0  0  0  0
  3 13  1  0  0  0  0
  3 14  1  0  0  0  0
  3 15  1  0  0  0  0
  4  5  1  0  0  0  0
  4 16  1  0  0  0  0
  4 17  1  0  0  0  0
  5  6  1  0  0  0  0
  5 18  1  0  0  0  0
  5 19  1  0  0  0  0
  6  7  1  0  0  0  0
  6  9  1  0  0  0  0
  6  8  1  0  0  0  0
  7 20  1  0  0  0  0
  8 21  1  0  0  0  0
  8 22  1  0  0  0  0
  8 23  1  0  0  0  0
  9 24  1  0  0  0  0
  9 25  1  0  0  0  0
  9 26  1  0  0  0  0
M  END
$$$$