8200696 8200695
 OpenBabel01161410133D

 36 37  0  0  0  0  0  0  0  0999 V2000
    4.9076    0.5630   -1.1322 C   0  0  0  0  0  0  0  0  0  0  0  0
    3.6030    1.2089   -1.2940 N   0  0  0  0  0  0  0  0  0  0  0  0
    2.4918    0.2548   -1.1192 C   0  0  0  0  0  0  0  0  0  0  0  0
    2.4665   -0.8802   -2.1318 C   0  0  0  0  0  0  0  0  0  0  0  0
    2.5734   -2.1985   -1.6429 C   0  0  0  0  0  0  0  0  0  0  0  0
    2.5724   -3.2920   -2.5065 C   0  0  0  0  0  0  0  0  0  0  0  0
    2.4780   -3.0871   -3.8760 C   0  0  0  0  0  0  0  0  0  0  0  0
    2.3742   -1.7906   -4.3800 C   0  0  0  0  0  0  0  0  0  0  0  0
    2.3333   -0.6700   -3.5257 C   0  0  0  0  0  0  0  0  0  0  0  0
    2.2324    0.7322   -4.1114 C   0  0  0  0  0  0  0  0  0  0  0  0
    1.4472    0.8583   -5.4044 C   0  0  0  0  0  0  0  0  0  0  0  0
    2.0704    1.3155   -6.5746 C   0  0  0  0  0  0  0  0  0  0  0  0
    1.3498    1.4193   -7.7661 C   0  0  0  0  0  0  0  0  0  0  0  0
    0.0012    1.0694   -7.8000 C   0  0  0  0  0  0  0  0  0  0  0  0
   -0.6317    0.6230   -6.6415 C   0  0  0  0  0  0  0  0  0  0  0  0
    0.0850    0.5239   -5.4481 C   0  0  0  0  0  0  0  0  0  0  0  0
    3.4694    2.3014   -0.3274 C   0  0  0  0  0  0  0  0  0  0  0  0
    5.7137    1.3000   -1.2291 H   0  0  0  0  0  0  0  0  0  0  0  0
    5.0844   -0.1792   -1.9179 H   0  0  0  0  0  0  0  0  0  0  0  0
    5.0098    0.0714   -0.1578 H   0  0  0  0  0  0  0  0  0  0  0  0
    1.5305    0.7790   -1.2047 H   0  0  0  0  0  0  0  0  0  0  0  0
    2.5127   -0.1564   -0.1003 H   0  0  0  0  0  0  0  0  0  0  0  0
    2.6654   -2.3806   -0.5742 H   0  0  0  0  0  0  0  0  0  0  0  0
    2.6530   -4.3002   -2.1100 H   0  0  0  0  0  0  0  0  0  0  0  0
    2.4873   -3.9337   -4.5573 H   0  0  0  0  0  0  0  0  0  0  0  0
    2.3135   -1.6640   -5.4595 H   0  0  0  0  0  0  0  0  0  0  0  0
    3.2547    1.1031   -4.2599 H   0  0  0  0  0  0  0  0  0  0  0  0
    1.7476    1.4123   -3.4018 H   0  0  0  0  0  0  0  0  0  0  0  0
    3.1231    1.5887   -6.5659 H   0  0  0  0  0  0  0  0  0  0  0  0
    1.8425    1.7713   -8.6687 H   0  0  0  0  0  0  0  0  0  0  0  0
   -0.5570    1.1451   -8.7292 H   0  0  0  0  0  0  0  0  0  0  0  0
   -1.6827    0.3482   -6.6668 H   0  0  0  0  0  0  0  0  0  0  0  0
   -0.4180    0.1679   -4.5515 H   0  0  0  0  0  0  0  0  0  0  0  0
    4.2542    3.0510   -0.4805 H   0  0  0  0  0  0  0  0  0  0  0  0
    3.5302    1.9469    0.7088 H   0  0  0  0  0  0  0  0  0  0  0  0
    2.5126    2.8199   -0.4582 H   0  0  0  0  0  0  0  0  0  0  0  0
  1  2  1  0  0  0  0
  1 18  1  0  0  0  0
  1 19  1  0  0  0  0
  1 20  1  0  0  0  0
  2 17  1  0  0  0  0
  2  3  1  0  0  0  0
  3  4  1  0  0  0  0
  3 21  1  0  0  0  0
  3 22  1  0  0  0  0
  4  5  2  0  0  0  0
  4  9  1  0  0  0  0
  5  6  1  0  0  0  0
  5 23  1  0  0  0  0
  6  7  2  0  0  0  0
  6 24  1  0  0  0  0
  7  8  1  0  0  0  0
  7 25  1  0  0  0  0
  8  9  2  0  0  0  0
  8 26  1  0  0  0  0
  9 10  1  0  0  0  0
 10 11  1  0  0  0  0
 10 27  1  0  0  0  0
 10 28  1  0  0  0  0
 11 12  2  0  0  0  0
 11 16  1  0  0  0  0
 12 13  1  0  0  0  0
 12 29  1  0  0  0  0
 13 14  2  0  0  0  0
 13 30  1  0  0  0  0
 14 15  1  0  0  0  0
 14 31  1  0  0  0  0
 15 16  2  0  0  0  0
 15 32  1  0  0  0  0
 16 33  1  0  0  0  0
 17 34  1  0  0  0  0
 17 35  1  0  0  0  0
 17 36  1  0  0  0  0
M  END
$$$$