30419760 30419759
 OpenBabel01161410203D

 38 39  0  0  0  0  0  0  0  0999 V2000
    1.2892    0.5108    1.5510 C   0  0  0  0  0  0  0  0  0  0  0  0
    1.0527    1.9870    1.2704 C   0  0  0  0  0  0  0  0  0  0  0  0
   -0.0486    2.5333    2.1049 N   0  0  0  0  0  0  0  0  0  0  0  0
   -1.3805    2.1885    1.8223 C   0  0  0  0  0  0  0  0  0  0  0  0
   -1.7207    1.6654    0.5501 C   0  0  0  0  0  0  0  0  0  0  0  0
   -3.0036    1.2118    0.2111 C   0  0  0  0  0  0  0  0  0  0  0  0
   -4.0223    1.2254    1.1426 C   0  0  0  0  0  0  0  0  0  0  0  0
   -3.7525    1.8200    2.3666 C   0  0  0  0  0  0  0  0  0  0  0  0
   -2.4507    2.2670    2.7459 C   0  0  0  0  0  0  0  0  0  0  0  0
   -2.4090    2.7672    4.1721 C   0  0  0  0  0  0  0  0  0  0  0  0
   -3.0484    3.9686    4.3007 F   0  0  0  0  0  0  0  0  0  0  0  0
   -3.0699    1.9250    5.0273 F   0  0  0  0  0  0  0  0  0  0  0  0
   -1.1956    2.9391    4.7416 F   0  0  0  0  0  0  0  0  0  0  0  0
   -5.3256    0.8717    0.7937 N   0  0  0  0  0  0  0  0  0  0  0  0
    0.2452    3.8924    2.6193 C   0  0  0  0  0  0  0  0  0  0  0  0
    1.3514    3.8737    3.6720 C   0  0  0  0  0  0  0  0  0  0  0  0
    2.1784    4.9904    3.8456 C   0  0  0  0  0  0  0  0  0  0  0  0
    3.1784    4.9922    4.8253 C   0  0  0  0  0  0  0  0  0  0  0  0
    3.3560    3.8811    5.6497 C   0  0  0  0  0  0  0  0  0  0  0  0
    2.5382    2.7702    5.5013 C   0  0  0  0  0  0  0  0  0  0  0  0
    1.5439    2.7694    4.5225 C   0  0  0  0  0  0  0  0  0  0  0  0
    2.1145    0.1405    0.9336 H   0  0  0  0  0  0  0  0  0  0  0  0
    0.4073   -0.0989    1.3359 H   0  0  0  0  0  0  0  0  0  0  0  0
    1.5584    0.3510    2.5993 H   0  0  0  0  0  0  0  0  0  0  0  0
    0.8941    2.1770    0.2036 H   0  0  0  0  0  0  0  0  0  0  0  0
    1.9940    2.5058    1.4939 H   0  0  0  0  0  0  0  0  0  0  0  0
   -0.9845    1.5980   -0.2448 H   0  0  0  0  0  0  0  0  0  0  0  0
   -3.1823    0.8379   -0.7939 H   0  0  0  0  0  0  0  0  0  0  0  0
   -4.5683    1.9206    3.0846 H   0  0  0  0  0  0  0  0  0  0  0  0
   -5.9097    0.6201    1.5869 H   0  0  0  0  0  0  0  0  0  0  0  0
   -5.3758    0.1757    0.0558 H   0  0  0  0  0  0  0  0  0  0  0  0
   -0.6331    4.3914    3.0402 H   0  0  0  0  0  0  0  0  0  0  0  0
    0.5677    4.5146    1.7729 H   0  0  0  0  0  0  0  0  0  0  0  0
    2.0525    5.8727    3.2204 H   0  0  0  0  0  0  0  0  0  0  0  0
    3.8146    5.8633    4.9492 H   0  0  0  0  0  0  0  0  0  0  0  0
    4.1287    3.8861    6.4149 H   0  0  0  0  0  0  0  0  0  0  0  0
    2.6588    1.9027    6.1465 H   0  0  0  0  0  0  0  0  0  0  0  0
    0.9045    1.8945    4.4309 H   0  0  0  0  0  0  0  0  0  0  0  0
  1  2  1  0  0  0  0
  1 22  1  0  0  0  0
  1 23  1  0  0  0  0
  1 24  1  0  0  0  0
  2  3  1  0  0  0  0
  2 25  1  0  0  0  0
  2 26  1  0  0  0  0
  3 15  1  0  0  0  0
  3  4  1  0  0  0  0
  4  5  2  0  0  0  0
  4  9  1  0  0  0  0
  5  6  1  0  0  0  0
  5 27  1  0  0  0  0
  6  7  2  0  0  0  0
  6 28  1  0  0  0  0
  7  8  1  0  0  0  0
  7 14  1  0  0  0  0
  8  9  2  0  0  0  0
  8 29  1  0  0  0  0
  9 10  1  0  0  0  0
 10 13  1  0  0  0  0
 10 12  1  0  0  0  0
 10 11  1  0  0  0  0
 14 30  1  0  0  0  0
 14 31  1  0  0  0  0
 15 16  1  0  0  0  0
 15 32  1  0  0  0  0
 15 33  1  0  0  0  0
 16 17  2  0  0  0  0
 16 21  1  0  0  0  0
 17 18  1  0  0  0  0
 17 34  1  0  0  0  0
 18 19  2  0  0  0  0
 18 35  1  0  0  0  0
 19 20  1  0  0  0  0
 19 36  1  0  0  0  0
 20 21  2  0  0  0  0
 20 37  1  0  0  0  0
 21 38  1  0  0  0  0
M  END
$$$$