36009339 36009338
 OpenBabel01161410153D

 69 68  0  0  0  0  0  0  0  0999 V2000
   -0.8828   -6.8185   -0.9141 C   0  0  0  0  0  0  0  0  0  0  0  0
   -1.8096   -7.1918   -2.0622 C   0  0  0  0  0  0  0  0  0  0  0  0
   -1.3871   -8.4320   -2.8580 C   0  0  0  0  0  0  0  0  0  0  0  0
   -0.3307   -8.2092   -3.9473 C   0  0  0  0  0  0  0  0  0  0  0  0
    1.0527   -7.8810   -3.4000 C   0  0  0  0  0  0  0  0  0  0  0  0
    2.1414   -7.9060   -4.4748 C   0  0  0  0  0  0  0  0  0  0  0  0
    3.4826   -7.5414   -3.8347 C   0  0  0  0  0  0  0  0  0  0  0  0
    4.6305   -7.4836   -4.8422 C   0  0  0  0  0  0  0  0  0  0  0  0
    5.9591   -7.0465   -4.1969 C   0  0  0  0  0  0  0  0  0  0  0  0
    6.4555   -8.0598   -3.1636 C   0  0  0  0  0  0  0  0  0  0  0  0
    7.7783   -7.6884   -2.4838 C   0  0  0  0  0  0  0  0  0  0  0  0
    8.9949   -7.5543   -3.4000 C   0  0  0  0  0  0  0  0  0  0  0  0
    9.3300   -8.7737   -4.2652 C   0  0  0  0  0  0  0  0  0  0  0  0
   10.0653   -9.9064   -3.5316 C   0  0  0  0  0  0  0  0  0  0  0  0
    9.2913  -11.2277   -3.4562 C   0  0  0  0  0  0  0  0  0  0  0  0
    8.2088  -11.2233   -2.3817 C   0  0  0  0  0  0  0  0  0  0  0  0
    7.4482  -12.5443   -2.3227 C   0  0  0  0  0  0  0  0  0  0  0  0
    6.2434  -12.4353   -1.3790 C   0  0  0  0  0  0  0  0  0  0  0  0
    5.5622  -13.7839   -1.1473 C   0  0  0  0  0  0  0  0  0  0  0  0
    6.3882  -14.6871   -0.2286 C   0  0  0  0  0  0  0  0  0  0  0  0
    5.8512  -16.1177   -0.1992 C   0  0  0  0  0  0  0  0  0  0  0  0
    6.7615  -17.0011    0.6492 C   0  0  0  0  0  0  0  0  0  0  0  0
    6.1977  -18.7246    0.6171 S   0  0  0  0  0  0  0  0  0  0  0  0
   -1.3920   -6.1287   -0.2336 H   0  0  0  0  0  0  0  0  0  0  0  0
    0.0154   -6.3071   -1.2612 H   0  0  0  0  0  0  0  0  0  0  0  0
   -0.5824   -7.6991   -0.3379 H   0  0  0  0  0  0  0  0  0  0  0  0
   -1.9428   -6.3328   -2.7302 H   0  0  0  0  0  0  0  0  0  0  0  0
   -2.7941   -7.4025   -1.6257 H   0  0  0  0  0  0  0  0  0  0  0  0
   -2.2850   -8.8151   -3.3613 H   0  0  0  0  0  0  0  0  0  0  0  0
   -1.0609   -9.2260   -2.1751 H   0  0  0  0  0  0  0  0  0  0  0  0
   -0.6598   -7.4145   -4.6278 H   0  0  0  0  0  0  0  0  0  0  0  0
   -0.2673   -9.1272   -4.5448 H   0  0  0  0  0  0  0  0  0  0  0  0
    1.3110   -8.5887   -2.6017 H   0  0  0  0  0  0  0  0  0  0  0  0
    1.0409   -6.8797   -2.9628 H   0  0  0  0  0  0  0  0  0  0  0  0
    1.8978   -7.1951   -5.2712 H   0  0  0  0  0  0  0  0  0  0  0  0
    2.2014   -8.9024   -4.9290 H   0  0  0  0  0  0  0  0  0  0  0  0
    3.7000   -8.2833   -3.0588 H   0  0  0  0  0  0  0  0  0  0  0  0
    3.3971   -6.5688   -3.3356 H   0  0  0  0  0  0  0  0  0  0  0  0
    4.3805   -6.7699   -5.6354 H   0  0  0  0  0  0  0  0  0  0  0  0
    4.7554   -8.4605   -5.3204 H   0  0  0  0  0  0  0  0  0  0  0  0
    5.8366   -6.0645   -3.7274 H   0  0  0  0  0  0  0  0  0  0  0  0
    6.6994   -6.9375   -4.9932 H   0  0  0  0  0  0  0  0  0  0  0  0
    6.5260   -9.0317   -3.6579 H   0  0  0  0  0  0  0  0  0  0  0  0
    5.7141   -8.1735   -2.3648 H   0  0  0  0  0  0  0  0  0  0  0  0
    7.9969   -8.4268   -1.7040 H   0  0  0  0  0  0  0  0  0  0  0  0
    7.6384   -6.7371   -1.9527 H   0  0  0  0  0  0  0  0  0  0  0  0
    9.8649   -7.2946   -2.7844 H   0  0  0  0  0  0  0  0  0  0  0  0
    8.8339   -6.6938   -4.0607 H   0  0  0  0  0  0  0  0  0  0  0  0
   10.0090   -8.4116   -5.0493 H   0  0  0  0  0  0  0  0  0  0  0  0
    8.4472   -9.1417   -4.7962 H   0  0  0  0  0  0  0  0  0  0  0  0
   10.3906   -9.5961   -2.5315 H   0  0  0  0  0  0  0  0  0  0  0  0
   10.9840  -10.1150   -4.0975 H   0  0  0  0  0  0  0  0  0  0  0  0
   10.0023  -12.0322   -3.2294 H   0  0  0  0  0  0  0  0  0  0  0  0
    8.8558  -11.4619   -4.4351 H   0  0  0  0  0  0  0  0  0  0  0  0
    7.4919  -10.4362   -2.5839 H   0  0  0  0  0  0  0  0  0  0  0  0
    8.6561  -11.0122   -1.4039 H   0  0  0  0  0  0  0  0  0  0  0  0
    8.1391  -13.3294   -2.0017 H   0  0  0  0  0  0  0  0  0  0  0  0
    7.0926  -12.8186   -3.3234 H   0  0  0  0  0  0  0  0  0  0  0  0
    5.5142  -11.7440   -1.8199 H   0  0  0  0  0  0  0  0  0  0  0  0
    6.5472  -12.0022   -0.4174 H   0  0  0  0  0  0  0  0  0  0  0  0
    5.3817  -14.2741   -2.1110 H   0  0  0  0  0  0  0  0  0  0  0  0
    4.5812  -13.6151   -0.6873 H   0  0  0  0  0  0  0  0  0  0  0  0
    6.3879  -14.2683    0.7860 H   0  0  0  0  0  0  0  0  0  0  0  0
    7.4325  -14.7151   -0.5562 H   0  0  0  0  0  0  0  0  0  0  0  0
    5.8031  -16.5025   -1.2259 H   0  0  0  0  0  0  0  0  0  0  0  0
    4.8309  -16.1177    0.2025 H   0  0  0  0  0  0  0  0  0  0  0  0
    6.7726  -16.6545    1.6868 H   0  0  0  0  0  0  0  0  0  0  0  0
    7.7893  -16.9712    0.2726 H   0  0  0  0  0  0  0  0  0  0  0  0
    6.4220  -18.9314   -0.6906 H   0  0  0  0  0  0  0  0  0  0  0  0
  1  2  1  0  0  0  0
  1 24  1  0  0  0  0
  1 25  1  0  0  0  0
  1 26  1  0  0  0  0
  2  3  1  0  0  0  0
  2 27  1  0  0  0  0
  2 28  1  0  0  0  0
  3  4  1  0  0  0  0
  3 29  1  0  0  0  0
  3 30  1  0  0  0  0
  4  5  1  0  0  0  0
  4 31  1  0  0  0  0
  4 32  1  0  0  0  0
  5  6  1  0  0  0  0
  5 33  1  0  0  0  0
  5 34  1  0  0  0  0
  6  7  1  0  0  0  0
  6 35  1  0  0  0  0
  6 36  1  0  0  0  0
  7  8  1  0  0  0  0
  7 37  1  0  0  0  0
  7 38  1  0  0  0  0
  8  9  1  0  0  0  0
  8 39  1  0  0  0  0
  8 40  1  0  0  0  0
  9 10  1  0  0  0  0
  9 41  1  0  0  0  0
  9 42  1  0  0  0  0
 10 11  1  0  0  0  0
 10 43  1  0  0  0  0
 10 44  1  0  0  0  0
 11 12  1  0  0  0  0
 11 45  1  0  0  0  0
 11 46  1  0  0  0  0
 12 13  1  0  0  0  0
 12 47  1  0  0  0  0
 12 48  1  0  0  0  0
 13 14  1  0  0  0  0
 13 49  1  0  0  0  0
 13 50  1  0  0  0  0
 14 15  1  0  0  0  0
 14 51  1  0  0  0  0
 14 52  1  0  0  0  0
 15 16  1  0  0  0  0
 15 53  1  0  0  0  0
 15 54  1  0  0  0  0
 16 17  1  0  0  0  0
 16 55  1  0  0  0  0
 16 56  1  0  0  0  0
 17 18  1  0  0  0  0
 17 57  1  0  0  0  0
 17 58  1  0  0  0  0
 18 19  1  0  0  0  0
 18 59  1  0  0  0  0
 18 60  1  0  0  0  0
 19 20  1  0  0  0  0
 19 61  1  0  0  0  0
 19 62  1  0  0  0  0
 20 21  1  0  0  0  0
 20 63  1  0  0  0  0
 20 64  1  0  0  0  0
 21 22  1  0  0  0  0
 21 65  1  0  0  0  0
 21 66  1  0  0  0  0
 22 23  1  0  0  0  0
 22 67  1  0  0  0  0
 22 68  1  0  0  0  0
 23 69  1  0  0  0  0
M  END
$$$$