34618 34617
 OpenBabel01161410053D

 33 33  0  0  0  0  0  0  0  0999 V2000
   -1.1895    5.7101    2.5900 C   0  0  0  0  0  0  0  0  0  0  0  0
   -0.4030    4.4036    2.5352 C   0  0  0  0  0  0  0  0  0  0  0  0
    0.5082    4.3117    1.3835 N   0  0  0  0  0  0  0  0  0  0  0  0
    1.3382    3.0919    1.4360 C   0  0  0  0  0  0  0  0  0  0  0  0
    2.2771    3.0431    2.6252 C   0  0  0  0  0  0  0  0  0  0  0  0
    2.2105    1.9815    3.5379 C   0  0  0  0  0  0  0  0  0  0  0  0
    3.0532    1.9480    4.6506 C   0  0  0  0  0  0  0  0  0  0  0  0
    3.9887    2.9680    4.8638 C   0  0  0  0  0  0  0  0  0  0  0  0
    4.0605    4.0271    3.9504 C   0  0  0  0  0  0  0  0  0  0  0  0
    3.2175    4.0610    2.8377 C   0  0  0  0  0  0  0  0  0  0  0  0
    4.8515    2.9622    6.0963 C   0  0  0  0  0  0  0  0  0  0  0  0
    4.2046    3.6464    7.1610 O   0  0  0  0  0  0  0  0  0  0  0  0
   -0.1578    4.4430    0.0760 C   0  0  0  0  0  0  0  0  0  0  0  0
   -1.2209    3.3978   -0.2558 C   0  0  0  0  0  0  0  0  0  0  0  0
   -1.6999    5.7971    3.5553 H   0  0  0  0  0  0  0  0  0  0  0  0
   -1.9550    5.7581    1.8094 H   0  0  0  0  0  0  0  0  0  0  0  0
   -0.5269    6.5760    2.4849 H   0  0  0  0  0  0  0  0  0  0  0  0
   -1.0963    3.5551    2.5678 H   0  0  0  0  0  0  0  0  0  0  0  0
    0.1772    4.3654    3.4644 H   0  0  0  0  0  0  0  0  0  0  0  0
    1.9718    3.0324    0.5406 H   0  0  0  0  0  0  0  0  0  0  0  0
    0.7059    2.1952    1.4292 H   0  0  0  0  0  0  0  0  0  0  0  0
    1.4885    1.1803    3.3968 H   0  0  0  0  0  0  0  0  0  0  0  0
    2.9683    1.1252    5.3572 H   0  0  0  0  0  0  0  0  0  0  0  0
    4.7659    4.8412    4.1065 H   0  0  0  0  0  0  0  0  0  0  0  0
    3.2747    4.8975    2.1441 H   0  0  0  0  0  0  0  0  0  0  0  0
    5.8118    3.4506    5.9002 H   0  0  0  0  0  0  0  0  0  0  0  0
    5.0660    1.9379    6.4188 H   0  0  0  0  0  0  0  0  0  0  0  0
    3.3937    4.0481    6.8043 H   0  0  0  0  0  0  0  0  0  0  0  0
    0.6054    4.4248   -0.7132 H   0  0  0  0  0  0  0  0  0  0  0  0
   -0.6059    5.4403   -0.0059 H   0  0  0  0  0  0  0  0  0  0  0  0
   -0.8000    2.3893   -0.2932 H   0  0  0  0  0  0  0  0  0  0  0  0
   -1.6511    3.6095   -1.2402 H   0  0  0  0  0  0  0  0  0  0  0  0
   -2.0414    3.4060    0.4673 H   0  0  0  0  0  0  0  0  0  0  0  0
  1  2  1  0  0  0  0
  1 15  1  0  0  0  0
  1 16  1  0  0  0  0
  1 17  1  0  0  0  0
  2  3  1  0  0  0  0
  2 18  1  0  0  0  0
  2 19  1  0  0  0  0
  3 13  1  0  0  0  0
  3  4  1  0  0  0  0
  4  5  1  0  0  0  0
  4 20  1  0  0  0  0
  4 21  1  0  0  0  0
  5  6  2  0  0  0  0
  5 10  1  0  0  0  0
  6  7  1  0  0  0  0
  6 22  1  0  0  0  0
  7  8  2  0  0  0  0
  7 23  1  0  0  0  0
  8  9  1  0  0  0  0
  8 11  1  0  0  0  0
  9 10  2  0  0  0  0
  9 24  1  0  0  0  0
 10 25  1  0  0  0  0
 11 12  1  0  0  0  0
 11 26  1  0  0  0  0
 11 27  1  0  0  0  0
 12 28  1  0  0  0  0
 13 14  1  0  0  0  0
 13 29  1  0  0  0  0
 13 30  1  0  0  0  0
 14 31  1  0  0  0  0
 14 32  1  0  0  0  0
 14 33  1  0  0  0  0
M  END
$$$$