6796178 6796177
 OpenBabel01161410173D

 56 60  0  0  1  0  0  0  0  0999 V2000
    0.5315   -0.5191   -1.0925 O   0  0  0  0  0  0  0  0  0  0  0  0
    1.8473   -0.2548   -0.8413 C   0  0  0  0  0  0  0  0  0  0  0  0
    2.7623   -1.0693   -1.4835 C   0  0  0  0  0  0  0  0  0  0  0  0
    4.1318   -0.8855   -1.2767 C   0  0  0  0  0  0  0  0  0  0  0  0
    4.6491    0.1016   -0.4078 C   0  0  0  0  0  0  0  0  0  0  0  0
    3.6702    0.8632    0.2726 C   0  0  0  0  0  0  0  0  0  0  0  0
    2.2811    0.7514    0.0199 C   0  0  0  0  0  0  0  0  0  0  0  0
    1.3117    1.6711    0.7115 C   0  0  0  0  0  0  0  0  0  0  0  0
    3.9949    1.7434    1.2684 O   0  0  0  0  0  0  0  0  0  0  0  0
    6.1912    0.2938   -0.2611 C   0  0  3  0  0  0  0  0  0  0  0  0
    6.8972   -1.0935   -0.2059 C   0  0  0  0  0  0  0  0  0  0  0  0
    7.3471   -1.4183   -1.6508 C   0  0  0  0  0  0  0  0  0  0  0  0
    7.0614   -0.1658   -2.4936 C   0  0  0  0  0  0  0  0  0  0  0  0
    6.9966    0.9111   -1.4258 C   0  0  3  0  0  0  0  0  0  0  0  0
    6.6186    2.3638   -1.7325 C   0  0  0  0  0  0  0  0  0  0  0  0
    6.7638    3.0828   -0.3804 C   0  0  0  0  0  0  0  0  0  0  0  0
    6.8209    2.3584    0.8339 C   0  0  0  0  0  0  0  0  0  0  0  0
    6.5340    1.0050    0.9441 O   0  0  0  0  0  0  0  0  0  0  0  0
    7.0931    2.9999    2.0622 C   0  0  0  0  0  0  0  0  0  0  0  0
    7.1722    2.2111    3.3421 C   0  0  0  0  0  0  0  0  0  0  0  0
    7.2135    4.3918    2.0752 C   0  0  0  0  0  0  0  0  0  0  0  0
    7.4345    5.0289    3.2642 O   0  0  0  0  0  0  0  0  0  0  0  0
    7.0919    5.1323    0.9048 C   0  0  0  0  0  0  0  0  0  0  0  0
    6.8703    4.4824   -0.3102 C   0  0  0  0  0  0  0  0  0  0  0  0
    5.2082    2.5677   -2.3342 C   0  0  0  0  0  0  0  0  0  0  0  0
    5.3799    3.5624   -3.4755 C   0  0  0  0  0  0  0  0  0  0  0  0
    6.7277    3.1872   -4.0543 C   0  0  0  0  0  0  0  0  0  0  0  0
    7.5876    2.9253   -2.8240 C   0  0  0  0  0  0  0  0  0  0  0  0
   -0.0128   -0.0712   -0.4265 H   0  0  0  0  0  0  0  0  0  0  0  0
    2.4139   -1.8551   -2.1484 H   0  0  0  0  0  0  0  0  0  0  0  0
    4.7768   -1.5660   -1.8192 H   0  0  0  0  0  0  0  0  0  0  0  0
    0.4441    1.8825    0.0762 H   0  0  0  0  0  0  0  0  0  0  0  0
    1.7609    2.6477    0.9243 H   0  0  0  0  0  0  0  0  0  0  0  0
    0.9694    1.2239    1.6499 H   0  0  0  0  0  0  0  0  0  0  0  0
    4.8659    1.4797    1.6134 H   0  0  0  0  0  0  0  0  0  0  0  0
    7.7857   -1.0430    0.4378 H   0  0  0  0  0  0  0  0  0  0  0  0
    6.2699   -1.8891    0.2118 H   0  0  0  0  0  0  0  0  0  0  0  0
    8.4214   -1.6388   -1.6540 H   0  0  0  0  0  0  0  0  0  0  0  0
    6.8430   -2.3006   -2.0565 H   0  0  0  0  0  0  0  0  0  0  0  0
    7.8622    0.0019   -3.2203 H   0  0  0  0  0  0  0  0  0  0  0  0
    6.1293   -0.2578   -3.0564 H   0  0  0  0  0  0  0  0  0  0  0  0
    8.0459    0.9822   -1.0745 H   0  0  0  0  0  0  0  0  0  0  0  0
    7.7594    2.7302    4.1064 H   0  0  0  0  0  0  0  0  0  0  0  0
    7.6684    1.2483    3.1791 H   0  0  0  0  0  0  0  0  0  0  0  0
    6.1662    2.0333    3.7343 H   0  0  0  0  0  0  0  0  0  0  0  0
    7.4657    5.9862    3.1067 H   0  0  0  0  0  0  0  0  0  0  0  0
    7.1724    6.2154    0.9146 H   0  0  0  0  0  0  0  0  0  0  0  0
    6.7857    5.0926   -1.2058 H   0  0  0  0  0  0  0  0  0  0  0  0
    4.4705    2.9378   -1.6148 H   0  0  0  0  0  0  0  0  0  0  0  0
    4.8209    1.6372   -2.7618 H   0  0  0  0  0  0  0  0  0  0  0  0
    4.5757    3.4849   -4.2131 H   0  0  0  0  0  0  0  0  0  0  0  0
    5.3936    4.5900   -3.0961 H   0  0  0  0  0  0  0  0  0  0  0  0
    6.6422    2.2739   -4.6548 H   0  0  0  0  0  0  0  0  0  0  0  0
    7.1426    3.9746   -4.6899 H   0  0  0  0  0  0  0  0  0  0  0  0
    8.4071    2.2424   -3.0713 H   0  0  0  0  0  0  0  0  0  0  0  0
    8.0711    3.8603   -2.5228 H   0  0  0  0  0  0  0  0  0  0  0  0
  1  2  1  0  0  0  0
  1 29  1  0  0  0  0
  2  7  1  0  0  0  0
  2  3  2  0  0  0  0
  3  4  1  0  0  0  0
  3 30  1  0  0  0  0
  4  5  2  0  0  0  0
  4 31  1  0  0  0  0
  5  6  1  0  0  0  0
  5 10  1  0  0  0  0
  6  7  2  0  0  0  0
  6  9  1  0  0  0  0
  7  8  1  0  0  0  0
  8 32  1  0  0  0  0
  8 33  1  0  0  0  0
  8 34  1  0  0  0  0
  9 35  1  0  0  0  0
 10 18  1  0  0  0  0
 10 14  1  0  0  0  0
 10 11  1  0  0  0  0
 11 12  1  0  0  0  0
 11 36  1  0  0  0  0
 11 37  1  0  0  0  0
 12 13  1  0  0  0  0
 12 38  1  0  0  0  0
 12 39  1  0  0  0  0
 13 14  1  0  0  0  0
 13 40  1  0  0  0  0
 13 41  1  0  0  0  0
 14 15  1  0  0  0  0
 14 42  1  0  0  0  0
 15 16  1  0  0  0  0
 15 28  1  0  0  0  0
 15 25  1  0  0  0  0
 16 24  1  0  0  0  0
 16 17  2  0  0  0  0
 17 19  1  0  0  0  0
 17 18  1  0  0  0  0
 19 21  2  0  0  0  0
 19 20  1  0  0  0  0
 20 43  1  0  0  0  0
 20 44  1  0  0  0  0
 20 45  1  0  0  0  0
 21 23  1  0  0  0  0
 21 22  1  0  0  0  0
 22 46  1  0  0  0  0
 23 24  2  0  0  0  0
 23 47  1  0  0  0  0
 24 48  1  0  0  0  0
 25 26  1  0  0  0  0
 25 49  1  0  0  0  0
 25 50  1  0  0  0  0
 26 27  1  0  0  0  0
 26 51  1  0  0  0  0
 26 52  1  0  0  0  0
 27 28  1  0  0  0  0
 27 53  1  0  0  0  0
 27 54  1  0  0  0  0
 28 55  1  0  0  0  0
 28 56  1  0  0  0  0
M  END
$$$$