42838360 42838359
 OpenBabel01161410433D

 29 31  0  0  0  0  0  0  0  0999 V2000
    2.3268   -1.2911   -0.7022 O   0  0  0  0  0  0  0  0  0  0  0  0
    2.3154    0.0026   -0.1037 C   0  0  0  0  0  0  0  0  0  0  0  0
    2.8531   -0.0634    1.3274 C   0  0  0  0  0  0  0  0  0  0  0  0
    2.4194    1.1614    2.2090 C   0  0  0  0  0  0  0  0  0  0  0  0
    2.0162    0.1987    3.3348 C   0  0  0  0  0  0  0  0  0  0  0  0
    1.9655   -0.9250    2.2921 C   0  0  0  0  0  0  0  0  0  0  0  0
    4.3620   -0.3922    1.4547 C   0  0  0  0  0  0  0  0  0  0  0  0
    5.0465   -0.2823    2.5977 N   0  0  0  0  0  0  0  0  0  0  0  0
    6.3442   -0.6398    2.2943 O   0  0  0  0  0  0  0  0  0  0  0  0
    6.4503   -0.9755    0.9693 C   0  0  0  0  0  0  0  0  0  0  0  0
    5.1978   -0.8305    0.4067 C   0  0  0  0  0  0  0  0  0  0  0  0
    7.6947   -1.3867    0.3778 C   0  0  0  0  0  0  0  0  0  0  0  0
    8.9167   -1.4770    1.0169 C   0  0  0  0  0  0  0  0  0  0  0  0
    9.9610   -1.9137    0.1488 C   0  0  0  0  0  0  0  0  0  0  0  0
    9.5031   -2.1447   -1.1280 C   0  0  0  0  0  0  0  0  0  0  0  0
    7.8287   -1.8339   -1.2731 S   0  0  0  0  0  0  0  0  0  0  0  0
    1.8841   -1.2130   -1.5653 H   0  0  0  0  0  0  0  0  0  0  0  0
    1.2794    0.3599   -0.1174 H   0  0  0  0  0  0  0  0  0  0  0  0
    2.9111    0.6837   -0.7218 H   0  0  0  0  0  0  0  0  0  0  0  0
    1.5678    1.7258    1.8084 H   0  0  0  0  0  0  0  0  0  0  0  0
    3.1992    1.8840    2.4698 H   0  0  0  0  0  0  0  0  0  0  0  0
    2.7827    0.0599    4.1041 H   0  0  0  0  0  0  0  0  0  0  0  0
    1.0669    0.4242    3.8284 H   0  0  0  0  0  0  0  0  0  0  0  0
    2.3838   -1.8829    2.6183 H   0  0  0  0  0  0  0  0  0  0  0  0
    0.9509   -1.1137    1.9185 H   0  0  0  0  0  0  0  0  0  0  0  0
    4.9301   -1.0252   -0.6211 H   0  0  0  0  0  0  0  0  0  0  0  0
    9.0593   -1.2392    2.0650 H   0  0  0  0  0  0  0  0  0  0  0  0
   10.9931   -2.0511    0.4480 H   0  0  0  0  0  0  0  0  0  0  0  0
   10.0699   -2.4814   -1.9851 H   0  0  0  0  0  0  0  0  0  0  0  0
  1  2  1  0  0  0  0
  1 17  1  0  0  0  0
  2  3  1  0  0  0  0
  2 18  1  0  0  0  0
  2 19  1  0  0  0  0
  3  6  1  0  0  0  0
  3  4  1  0  0  0  0
  3  7  1  0  0  0  0
  4  5  1  0  0  0  0
  4 20  1  0  0  0  0
  4 21  1  0  0  0  0
  5  6  1  0  0  0  0
  5 22  1  0  0  0  0
  5 23  1  0  0  0  0
  6 24  1  0  0  0  0
  6 25  1  0  0  0  0
  7 11  1  0  0  0  0
  7  8  2  0  0  0  0
  8  9  1  0  0  0  0
  9 10  1  0  0  0  0
 10 11  2  0  0  0  0
 10 12  1  0  0  0  0
 11 26  1  0  0  0  0
 12 13  2  0  0  0  0
 12 16  1  0  0  0  0
 13 14  1  0  0  0  0
 13 27  1  0  0  0  0
 14 15  2  0  0  0  0
 14 28  1  0  0  0  0
 15 16  1  0  0  0  0
 15 29  1  0  0  0  0
M  END
$$$$