5854731 5854730
 OpenBabel01161410113D

 19 19  0  0  0  0  0  0  0  0999 V2000
    0.8915    0.0359    0.0426 C   0  0  0  0  0  0  0  0  0  0  0  0
    2.4313    0.0163    0.0414 C   0  0  0  0  0  0  0  0  0  0  0  0
    2.9358    0.1106   -1.3900 C   0  0  0  0  0  0  0  0  0  0  0  0
    3.1626   -1.0697   -2.0977 N   0  0  0  0  0  0  0  0  0  0  0  0
    3.5816   -0.8445   -3.3306 N   0  0  0  0  0  0  0  0  0  0  0  0
    3.6992    0.7813   -3.6894 S   0  0  0  0  0  0  0  0  0  0  0  0
    3.1701    1.2605   -2.1315 C   0  0  0  0  0  0  0  0  0  0  0  0
    2.9448    1.1912    0.8992 C   0  0  0  0  0  0  0  0  0  0  0  0
    2.9083   -1.2910    0.7091 C   0  0  0  0  0  0  0  0  0  0  0  0
    0.4933   -0.0405    1.0605 H   0  0  0  0  0  0  0  0  0  0  0  0
    0.4831   -0.7986   -0.5401 H   0  0  0  0  0  0  0  0  0  0  0  0
    0.5041    0.9619   -0.3987 H   0  0  0  0  0  0  0  0  0  0  0  0
    3.0627    2.2982   -1.8552 H   0  0  0  0  0  0  0  0  0  0  0  0
    2.6191    1.0929    1.9410 H   0  0  0  0  0  0  0  0  0  0  0  0
    2.5714    2.1545    0.5337 H   0  0  0  0  0  0  0  0  0  0  0  0
    4.0401    1.2369    0.8946 H   0  0  0  0  0  0  0  0  0  0  0  0
    2.5744   -1.3496    1.7511 H   0  0  0  0  0  0  0  0  0  0  0  0
    4.0025   -1.3617    0.7036 H   0  0  0  0  0  0  0  0  0  0  0  0
    2.5178   -2.1750    0.1918 H   0  0  0  0  0  0  0  0  0  0  0  0
  1  2  1  0  0  0  0
  1 10  1  0  0  0  0
  1 11  1  0  0  0  0
  1 12  1  0  0  0  0
  2  9  1  0  0  0  0
  2  8  1  0  0  0  0
  2  3  1  0  0  0  0
  3  7  2  0  0  0  0
  3  4  1  0  0  0  0
  4  5  2  0  0  0  0
  5  6  1  0  0  0  0
  6  7  1  0  0  0  0
  7 13  1  0  0  0  0
  8 14  1  0  0  0  0
  8 15  1  0  0  0  0
  8 16  1  0  0  0  0
  9 17  1  0  0  0  0
  9 18  1  0  0  0  0
  9 19  1  0  0  0  0
M  END
$$$$