475426 475425
 OpenBabel01161410403D

 11 10  0  0  0  0  0  0  0  0999 V2000
    0.8883   -0.0677    0.0777 C   0  0  0  0  0  0  0  0  0  0  0  0
    2.4071   -0.0159   -0.0300 C   0  0  0  0  0  0  0  0  0  0  0  0
    3.0897    0.4562   -1.6920 Si  0  0  0  0  0  0  0  0  0  0  0  0
    2.6222   -0.4420   -2.7783 H   0  0  0  0  0  0  0  0  0  0  0  0
    2.5791    2.3815   -2.1567 Cl  0  0  0  0  0  0  0  0  0  0  0  0
    5.1345    0.4241   -1.6463 Cl  0  0  0  0  0  0  0  0  0  0  0  0
    0.5926   -0.3694    1.0881 H   0  0  0  0  0  0  0  0  0  0  0  0
    0.4618   -0.7899   -0.6269 H   0  0  0  0  0  0  0  0  0  0  0  0
    0.4376    0.9097   -0.1250 H   0  0  0  0  0  0  0  0  0  0  0  0
    2.8026   -1.0019    0.2428 H   0  0  0  0  0  0  0  0  0  0  0  0
    2.7844    0.6852    0.7244 H   0  0  0  0  0  0  0  0  0  0  0  0
  1  2  1  0  0  0  0
  1  7  1  0  0  0  0
  1  8  1  0  0  0  0
  1  9  1  0  0  0  0
  2  3  1  0  0  0  0
  2 10  1  0  0  0  0
  2 11  1  0  0  0  0
  3  6  1  0  0  0  0
  3  5  1  0  0  0  0
  3  4  1  0  0  0  0
M  END
$$$$