43552602 43552601
 OpenBabel01161410473D

 45 46  0  0  0  0  0  0  0  0999 V2000
    4.8956    0.6401   -2.2429 C   0  0  0  0  0  0  0  0  0  0  0  0
    3.4575    1.4145   -1.3191 Si  0  0  0  0  0  0  0  0  0  0  0  0
    1.8432    1.4608   -2.6297 C   0  0  0  0  0  0  0  0  0  0  0  0
    0.6300    2.0678   -1.8962 C   0  0  0  0  0  0  0  0  0  0  0  0
    2.2046    2.3196   -3.8570 C   0  0  0  0  0  0  0  0  0  0  0  0
    1.5216    0.0178   -3.0682 C   0  0  0  0  0  0  0  0  0  0  0  0
    3.0073    0.5118    0.0198 O   0  0  0  0  0  0  0  0  0  0  0  0
    3.9640    0.2765    1.0501 C   0  0  0  0  0  0  0  0  0  0  0  0
    3.3508   -0.5395    2.1670 C   0  0  0  0  0  0  0  0  0  0  0  0
    2.3285   -1.4629    1.9261 C   0  0  0  0  0  0  0  0  0  0  0  0
    1.7986   -2.2310    2.9678 C   0  0  0  0  0  0  0  0  0  0  0  0
    2.2790   -2.1179    4.2837 C   0  0  0  0  0  0  0  0  0  0  0  0
    3.3257   -1.2046    4.5067 C   0  0  0  0  0  0  0  0  0  0  0  0
    3.8548   -0.4289    3.4691 C   0  0  0  0  0  0  0  0  0  0  0  0
    1.7059   -2.9612    5.4121 C   0  0  0  0  0  0  0  0  0  0  0  0
    1.1126   -2.2012    6.5429 N   0  0  0  0  0  0  0  0  0  0  0  0
    0.2404   -2.8501    5.6421 N   0  0  0  0  0  0  0  0  0  0  0  0
    2.4021   -4.2964    5.6742 C   0  0  0  0  0  0  0  0  0  0  0  0
    3.6371   -4.1180    6.2018 F   0  0  0  0  0  0  0  0  0  0  0  0
    1.6896   -5.0626    6.5416 F   0  0  0  0  0  0  0  0  0  0  0  0
    2.5368   -5.0164    4.5324 F   0  0  0  0  0  0  0  0  0  0  0  0
    3.8575    3.1903   -0.8677 C   0  0  0  0  0  0  0  0  0  0  0  0
    5.7864    0.6087   -1.6091 H   0  0  0  0  0  0  0  0  0  0  0  0
    5.1390    1.2159   -3.1398 H   0  0  0  0  0  0  0  0  0  0  0  0
    4.6576   -0.3836   -2.5444 H   0  0  0  0  0  0  0  0  0  0  0  0
    0.3605    1.4812   -1.0103 H   0  0  0  0  0  0  0  0  0  0  0  0
   -0.2465    2.0960   -2.5540 H   0  0  0  0  0  0  0  0  0  0  0  0
    0.8287    3.0944   -1.5683 H   0  0  0  0  0  0  0  0  0  0  0  0
    3.0756    1.9198   -4.3880 H   0  0  0  0  0  0  0  0  0  0  0  0
    2.4320    3.3533   -3.5739 H   0  0  0  0  0  0  0  0  0  0  0  0
    1.3708    2.3496   -4.5679 H   0  0  0  0  0  0  0  0  0  0  0  0
    2.3636   -0.4395   -3.6000 H   0  0  0  0  0  0  0  0  0  0  0  0
    0.6585    0.0010   -3.7439 H   0  0  0  0  0  0  0  0  0  0  0  0
    1.2832   -0.6205   -2.2095 H   0  0  0  0  0  0  0  0  0  0  0  0
    4.3070    1.2367    1.4569 H   0  0  0  0  0  0  0  0  0  0  0  0
    4.8236   -0.2795    0.6550 H   0  0  0  0  0  0  0  0  0  0  0  0
    1.9284   -1.5851    0.9211 H   0  0  0  0  0  0  0  0  0  0  0  0
    0.9943   -2.9290    2.7455 H   0  0  0  0  0  0  0  0  0  0  0  0
    3.7416   -1.0931    5.5076 H   0  0  0  0  0  0  0  0  0  0  0  0
    4.6645    0.2642    3.6882 H   0  0  0  0  0  0  0  0  0  0  0  0
    1.1273   -1.1977    6.3381 H   0  0  0  0  0  0  0  0  0  0  0  0
   -0.1108   -3.7152    6.0685 H   0  0  0  0  0  0  0  0  0  0  0  0
    4.7223    3.2309   -0.1987 H   0  0  0  0  0  0  0  0  0  0  0  0
    3.0120    3.6619   -0.3585 H   0  0  0  0  0  0  0  0  0  0  0  0
    4.0934    3.7776   -1.7598 H   0  0  0  0  0  0  0  0  0  0  0  0
  1  2  1  0  0  0  0
  1 23  1  0  0  0  0
  1 24  1  0  0  0  0
  1 25  1  0  0  0  0
  2 22  1  0  0  0  0
  2  7  1  0  0  0  0
  2  3  1  0  0  0  0
  3  6  1  0  0  0  0
  3  5  1  0  0  0  0
  3  4  1  0  0  0  0
  4 26  1  0  0  0  0
  4 27  1  0  0  0  0
  4 28  1  0  0  0  0
  5 29  1  0  0  0  0
  5 30  1  0  0  0  0
  5 31  1  0  0  0  0
  6 32  1  0  0  0  0
  6 33  1  0  0  0  0
  6 34  1  0  0  0  0
  7  8  1  0  0  0  0
  8  9  1  0  0  0  0
  8 35  1  0  0  0  0
  8 36  1  0  0  0  0
  9 10  2  0  0  0  0
  9 14  1  0  0  0  0
 10 11  1  0  0  0  0
 10 37  1  0  0  0  0
 11 12  2  0  0  0  0
 11 38  1  0  0  0  0
 12 13  1  0  0  0  0
 12 15  1  0  0  0  0
 13 14  2  0  0  0  0
 13 39  1  0  0  0  0
 14 40  1  0  0  0  0
 15 17  1  0  0  0  0
 15 16  1  0  0  0  0
 15 18  1  0  0  0  0
 16 17  1  0  0  0  0
 16 41  1  0  0  0  0
 17 42  1  0  0  0  0
 18 21  1  0  0  0  0
 18 20  1  0  0  0  0
 18 19  1  0  0  0  0
 22 43  1  0  0  0  0
 22 44  1  0  0  0  0
 22 45  1  0  0  0  0
M  END
$$$$