5862907 5862906
 OpenBabel01161410193D

 22 23  0  0  1  0  0  0  0  0999 V2000
    0.9465    0.1167   -0.0985 C   0  0  0  0  0  0  0  0  0  0  0  0
    2.4465    0.0752   -0.0610 C   0  0  0  0  0  0  0  0  0  0  0  0
    3.1775    1.2874   -0.0762 C   0  0  0  0  0  0  0  0  0  0  0  0
    4.5803    1.2968   -0.0408 C   0  0  0  0  0  0  0  0  0  0  0  0
    5.3451    2.5793   -0.0463 C   0  0  0  0  0  0  0  0  0  0  0  0
    5.2053    0.0688    0.0091 C   0  0  0  0  0  0  0  0  0  0  0  0
    4.5010   -1.1108    0.0309 C   0  0  0  0  0  0  0  0  0  0  0  0
    3.1269   -1.1484   -0.0036 C   0  0  0  0  0  0  0  0  0  0  0  0
    5.7351   -1.9629    0.0853 C   0  0  0  0  0  0  0  0  0  0  0  0
    6.5442   -0.6206    0.0784 C   0  0  3  0  0  0  0  0  0  0  0  0
    7.6650   -0.3150   -1.2884 Cl  0  0  0  0  0  0  0  0  0  0  0  0
    0.5176   -0.8904   -0.1301 H   0  0  0  0  0  0  0  0  0  0  0  0
    0.6058    0.6530   -0.9902 H   0  0  0  0  0  0  0  0  0  0  0  0
    0.5618    0.6199    0.7944 H   0  0  0  0  0  0  0  0  0  0  0  0
    2.6379    2.2329   -0.1167 H   0  0  0  0  0  0  0  0  0  0  0  0
    6.4257    2.4045   -0.0560 H   0  0  0  0  0  0  0  0  0  0  0  0
    5.1082    3.1630    0.8493 H   0  0  0  0  0  0  0  0  0  0  0  0
    5.0932    3.1673   -0.9349 H   0  0  0  0  0  0  0  0  0  0  0  0
    2.5974   -2.0946    0.0104 H   0  0  0  0  0  0  0  0  0  0  0  0
    5.9078   -2.6134   -0.7797 H   0  0  0  0  0  0  0  0  0  0  0  0
    5.8739   -2.5613    0.9930 H   0  0  0  0  0  0  0  0  0  0  0  0
    7.1055   -0.4503    1.0046 H   0  0  0  0  0  0  0  0  0  0  0  0
  1  2  1  0  0  0  0
  1 12  1  0  0  0  0
  1 13  1  0  0  0  0
  1 14  1  0  0  0  0
  2  8  1  0  0  0  0
  2  3  2  0  0  0  0
  3  4  1  0  0  0  0
  3 15  1  0  0  0  0
  4  6  2  0  0  0  0
  4  5  1  0  0  0  0
  5 16  1  0  0  0  0
  5 17  1  0  0  0  0
  5 18  1  0  0  0  0
  6  7  1  0  0  0  0
  6 10  1  0  0  0  0
  7  8  2  0  0  0  0
  7  9  1  0  0  0  0
  8 19  1  0  0  0  0
  9 10  1  0  0  0  0
  9 20  1  0  0  0  0
  9 21  1  0  0  0  0
 10 11  1  0  0  0  0
 10 22  1  0  0  0  0
M  END
$$$$