43297463 43297462
 OpenBabel01161410463D

 21 21  0  0  0  0  0  0  0  0999 V2000
    1.6844   -0.3612   -1.2606 O   0  0  0  0  0  0  0  0  0  0  0  0
    2.3157   -0.0258   -0.0326 C   0  0  0  0  0  0  0  0  0  0  0  0
    2.9060    1.3524   -0.1792 C   0  0  0  0  0  0  0  0  0  0  0  0
    2.1935    2.4427    0.3556 C   0  0  0  0  0  0  0  0  0  0  0  0
    2.6723    3.7453    0.2297 C   0  0  0  0  0  0  0  0  0  0  0  0
    3.8666    3.9792   -0.4391 C   0  0  0  0  0  0  0  0  0  0  0  0
    4.5798    2.9120   -0.9857 C   0  0  0  0  0  0  0  0  0  0  0  0
    4.1168    1.5850   -0.8783 C   0  0  0  0  0  0  0  0  0  0  0  0
    4.9287    0.4428   -1.4723 C   0  0  0  0  0  0  0  0  0  0  0  0
    4.1866   -0.3614   -2.3632 O   0  0  0  0  0  0  0  0  0  0  0  0
    6.0316    0.9142   -2.2188 O   0  0  0  0  0  0  0  0  0  0  0  0
    1.3402   -1.2651   -1.1573 H   0  0  0  0  0  0  0  0  0  0  0  0
    3.0871   -0.7659    0.2026 H   0  0  0  0  0  0  0  0  0  0  0  0
    1.5696   -0.0582    0.7685 H   0  0  0  0  0  0  0  0  0  0  0  0
    1.2480    2.2805    0.8688 H   0  0  0  0  0  0  0  0  0  0  0  0
    2.1096    4.5759    0.6469 H   0  0  0  0  0  0  0  0  0  0  0  0
    4.2445    4.9930   -0.5444 H   0  0  0  0  0  0  0  0  0  0  0  0
    5.5101    3.1256   -1.5098 H   0  0  0  0  0  0  0  0  0  0  0  0
    5.3133   -0.1832   -0.6600 H   0  0  0  0  0  0  0  0  0  0  0  0
    3.3199    0.0747   -2.4807 H   0  0  0  0  0  0  0  0  0  0  0  0
    6.3808    0.1059   -2.6284 H   0  0  0  0  0  0  0  0  0  0  0  0
  1  2  1  0  0  0  0
  1 12  1  0  0  0  0
  2  3  1  0  0  0  0
  2 13  1  0  0  0  0
  2 14  1  0  0  0  0
  3  4  2  0  0  0  0
  3  8  1  0  0  0  0
  4  5  1  0  0  0  0
  4 15  1  0  0  0  0
  5  6  2  0  0  0  0
  5 16  1  0  0  0  0
  6  7  1  0  0  0  0
  6 17  1  0  0  0  0
  7  8  2  0  0  0  0
  7 18  1  0  0  0  0
  8  9  1  0  0  0  0
  9 11  1  0  0  0  0
  9 10  1  0  0  0  0
  9 19  1  0  0  0  0
 10 20  1  0  0  0  0
 11 21  1  0  0  0  0
M  END
$$$$