11060877 11060876
 OpenBabel01161410553D

 36 37  0  0  1  0  0  0  0  0999 V2000
    0.8734    0.0185    0.0251 N   0  0  0  0  0  0  0  0  0  0  0  0
    2.3329    0.0944   -0.1246 C   0  0  3  0  0  0  0  0  0  0  0  0
    2.6783    0.5896   -1.5185 C   0  0  0  0  0  0  0  0  0  0  0  0
    3.4243   -0.2136   -2.3889 C   0  0  0  0  0  0  0  0  0  0  0  0
    3.7458    0.2328   -3.6723 C   0  0  0  0  0  0  0  0  0  0  0  0
    3.3198    1.4894   -4.1252 C   0  0  0  0  0  0  0  0  0  0  0  0
    2.5592    2.3060   -3.2669 C   0  0  0  0  0  0  0  0  0  0  0  0
    2.2489    1.8460   -1.9759 C   0  0  0  0  0  0  0  0  0  0  0  0
    2.0632    3.6570   -3.7036 C   0  0  0  0  0  0  0  0  0  0  0  0
    3.6795    1.9339   -5.5165 C   0  0  0  0  0  0  0  0  0  0  0  0
    2.9059    0.9770    1.0029 C   0  0  0  0  0  0  0  0  0  0  0  0
    4.4364    1.0527    1.0326 C   0  0  0  0  0  0  0  0  0  0  0  0
    5.0672   -0.2545    1.3532 C   0  0  0  0  0  0  0  0  0  0  0  0
    5.6837   -1.2235    0.5898 C   0  0  0  0  0  0  0  0  0  0  0  0
    6.0671   -2.2510    1.4850 C   0  0  0  0  0  0  0  0  0  0  0  0
    5.6775   -1.8345    2.7354 C   0  0  0  0  0  0  0  0  0  0  0  0
    5.0647   -0.6260    2.6644 O   0  0  0  0  0  0  0  0  0  0  0  0
    0.6551   -0.4500    0.9022 H   0  0  0  0  0  0  0  0  0  0  0  0
    0.5047   -0.5757   -0.7168 H   0  0  0  0  0  0  0  0  0  0  0  0
    2.7125   -0.9273   -0.0044 H   0  0  0  0  0  0  0  0  0  0  0  0
    3.7600   -1.1998   -2.0768 H   0  0  0  0  0  0  0  0  0  0  0  0
    4.3296   -0.4151   -4.3231 H   0  0  0  0  0  0  0  0  0  0  0  0
    1.6450    2.4669   -1.3147 H   0  0  0  0  0  0  0  0  0  0  0  0
    1.4777    4.1451   -2.9169 H   0  0  0  0  0  0  0  0  0  0  0  0
    1.4157    3.5596   -4.5810 H   0  0  0  0  0  0  0  0  0  0  0  0
    2.9066    4.3130   -3.9423 H   0  0  0  0  0  0  0  0  0  0  0  0
    4.2437    1.1626   -6.0517 H   0  0  0  0  0  0  0  0  0  0  0  0
    4.3022    2.8331   -5.4785 H   0  0  0  0  0  0  0  0  0  0  0  0
    2.7749    2.1393   -6.0971 H   0  0  0  0  0  0  0  0  0  0  0  0
    2.5536    0.5972    1.9715 H   0  0  0  0  0  0  0  0  0  0  0  0
    2.5166    1.9998    0.9173 H   0  0  0  0  0  0  0  0  0  0  0  0
    4.7352    1.7798    1.7985 H   0  0  0  0  0  0  0  0  0  0  0  0
    4.8275    1.4350    0.0823 H   0  0  0  0  0  0  0  0  0  0  0  0
    5.8319   -1.1919   -0.4806 H   0  0  0  0  0  0  0  0  0  0  0  0
    6.5726   -3.1764    1.2489 H   0  0  0  0  0  0  0  0  0  0  0  0
    5.7576   -2.2600    3.7252 H   0  0  0  0  0  0  0  0  0  0  0  0
  1  2  1  0  0  0  0
  1 18  1  0  0  0  0
  1 19  1  0  0  0  0
  2 11  1  0  0  0  0
  2  3  1  0  0  0  0
  2 20  1  0  0  0  0
  3  4  2  0  0  0  0
  3  8  1  0  0  0  0
  4  5  1  0  0  0  0
  4 21  1  0  0  0  0
  5  6  2  0  0  0  0
  5 22  1  0  0  0  0
  6  7  1  0  0  0  0
  6 10  1  0  0  0  0
  7  8  2  0  0  0  0
  7  9  1  0  0  0  0
  8 23  1  0  0  0  0
  9 24  1  0  0  0  0
  9 25  1  0  0  0  0
  9 26  1  0  0  0  0
 10 27  1  0  0  0  0
 10 28  1  0  0  0  0
 10 29  1  0  0  0  0
 11 12  1  0  0  0  0
 11 30  1  0  0  0  0
 11 31  1  0  0  0  0
 12 13  1  0  0  0  0
 12 32  1  0  0  0  0
 12 33  1  0  0  0  0
 13 14  2  0  0  0  0
 13 17  1  0  0  0  0
 14 15  1  0  0  0  0
 14 34  1  0  0  0  0
 15 16  2  0  0  0  0
 15 35  1  0  0  0  0
 16 17  1  0  0  0  0
 16 36  1  0  0  0  0
M  END
$$$$