17275476 17275475
 OpenBabel01161410483D

 21 22  0  0  1  0  0  0  0  0999 V2000
    0.7919    0.2469   -0.2671 C   0  0  0  0  0  0  0  0  0  0  0  0
    2.2788    0.1197   -0.1019 C   0  0  0  0  0  0  0  0  0  0  0  0
    3.0305    1.2307    0.3409 C   0  0  0  0  0  0  0  0  0  0  0  0
    4.4103    1.1033    0.5383 C   0  0  0  0  0  0  0  0  0  0  0  0
    4.9523   -0.1201    0.2728 C   0  0  0  0  0  0  0  0  0  0  0  0
    4.1472   -1.1148   -0.1877 C   0  0  0  0  0  0  0  0  0  0  0  0
    2.8338   -1.0815   -0.4045 N   0  0  0  0  0  0  0  0  0  0  0  0
    5.2459   -2.1135   -0.3638 C   0  0  3  0  0  0  0  0  0  0  0  0
    6.1711   -0.9964    0.2746 C   0  0  0  0  0  0  0  0  0  0  0  0
    5.0655   -3.4002    0.4238 C   0  0  0  0  0  0  0  0  0  0  0  0
    0.3260   -0.7404   -0.3289 H   0  0  0  0  0  0  0  0  0  0  0  0
    0.5620    0.8014   -1.1814 H   0  0  0  0  0  0  0  0  0  0  0  0
    0.3561    0.7683    0.5897 H   0  0  0  0  0  0  0  0  0  0  0  0
    2.5379    2.1757    0.5462 H   0  0  0  0  0  0  0  0  0  0  0  0
    5.0098    1.9315    0.8978 H   0  0  0  0  0  0  0  0  0  0  0  0
    5.5217   -2.3268   -1.4068 H   0  0  0  0  0  0  0  0  0  0  0  0
    6.5768   -1.2471    1.2601 H   0  0  0  0  0  0  0  0  0  0  0  0
    6.9998   -0.6828   -0.3682 H   0  0  0  0  0  0  0  0  0  0  0  0
    4.5543   -3.2353    1.3741 H   0  0  0  0  0  0  0  0  0  0  0  0
    6.0361   -3.8550    0.6370 H   0  0  0  0  0  0  0  0  0  0  0  0
    4.4830   -4.1200   -0.1547 H   0  0  0  0  0  0  0  0  0  0  0  0
  1  2  1  0  0  0  0
  1 11  1  0  0  0  0
  1 12  1  0  0  0  0
  1 13  1  0  0  0  0
  2  7  1  0  0  0  0
  2  3  2  0  0  0  0
  3  4  1  0  0  0  0
  3 14  1  0  0  0  0
  4  5  2  0  0  0  0
  4 15  1  0  0  0  0
  5  6  1  0  0  0  0
  5  9  1  0  0  0  0
  6  7  2  0  0  0  0
  6  8  1  0  0  0  0
  8 10  1  0  0  0  0
  8  9  1  0  0  0  0
  8 16  1  0  0  0  0
  9 17  1  0  0  0  0
  9 18  1  0  0  0  0
 10 19  1  0  0  0  0
 10 20  1  0  0  0  0
 10 21  1  0  0  0  0
M  END
$$$$