11480061 11480060
 OpenBabel01161410573D

 26 27  0  0  1  0  0  0  0  0999 V2000
    1.4917   -1.4114    2.1538 F   0  0  0  0  0  0  0  0  0  0  0  0
    2.6547   -1.0287    1.6110 C   0  0  0  0  0  0  0  0  0  0  0  0
    2.9744   -1.4298    0.3220 C   0  0  0  0  0  0  0  0  0  0  0  0
    4.1875   -1.0284   -0.2427 C   0  0  0  0  0  0  0  0  0  0  0  0
    5.1030   -0.2347    0.4788 C   0  0  0  0  0  0  0  0  0  0  0  0
    4.7308    0.1817    1.7726 C   0  0  0  0  0  0  0  0  0  0  0  0
    3.5192   -0.2242    2.3396 C   0  0  0  0  0  0  0  0  0  0  0  0
    6.4014    0.2429   -0.1787 C   0  0  3  0  0  0  0  0  0  0  0  0
    7.5304    0.5951    0.7803 C   0  0  0  0  0  0  0  0  0  0  0  0
    8.0729   -0.3497    1.6631 C   0  0  0  0  0  0  0  0  0  0  0  0
    9.1054    0.0367    2.5029 C   0  0  0  0  0  0  0  0  0  0  0  0
    9.6325    1.2784    2.5217 N   0  0  0  0  0  0  0  0  0  0  0  0
    9.1047    2.1751    1.6625 C   0  0  0  0  0  0  0  0  0  0  0  0
    8.0712    1.8867    0.7852 C   0  0  0  0  0  0  0  0  0  0  0  0
    6.9048   -0.7146   -1.1740 N   0  0  0  0  0  0  0  0  0  0  0  0
    2.2783   -2.0439   -0.2397 H   0  0  0  0  0  0  0  0  0  0  0  0
    4.4137   -1.3345   -1.2634 H   0  0  0  0  0  0  0  0  0  0  0  0
    5.3777    0.8314    2.3588 H   0  0  0  0  0  0  0  0  0  0  0  0
    3.2439    0.0901    3.3417 H   0  0  0  0  0  0  0  0  0  0  0  0
    6.1240    1.1501   -0.7322 H   0  0  0  0  0  0  0  0  0  0  0  0
    7.6930   -1.3654    1.7069 H   0  0  0  0  0  0  0  0  0  0  0  0
    9.5477   -0.6645    3.2050 H   0  0  0  0  0  0  0  0  0  0  0  0
    9.5492    3.1659    1.6977 H   0  0  0  0  0  0  0  0  0  0  0  0
    7.6986    2.6602    0.1210 H   0  0  0  0  0  0  0  0  0  0  0  0
    7.1492   -1.5797   -0.6964 H   0  0  0  0  0  0  0  0  0  0  0  0
    7.7752   -0.3514   -1.5596 H   0  0  0  0  0  0  0  0  0  0  0  0
  1  2  1  0  0  0  0
  2  3  2  0  0  0  0
  2  7  1  0  0  0  0
  3  4  1  0  0  0  0
  3 16  1  0  0  0  0
  4  5  2  0  0  0  0
  4 17  1  0  0  0  0
  5  6  1  0  0  0  0
  5  8  1  0  0  0  0
  6  7  2  0  0  0  0
  6 18  1  0  0  0  0
  7 19  1  0  0  0  0
  8 15  1  0  0  0  0
  8  9  1  0  0  0  0
  8 20  1  0  0  0  0
  9 10  2  0  0  0  0
  9 14  1  0  0  0  0
 10 11  1  0  0  0  0
 10 21  1  0  0  0  0
 11 12  2  0  0  0  0
 11 22  1  0  0  0  0
 12 13  1  0  0  0  0
 13 14  2  0  0  0  0
 13 23  1  0  0  0  0
 14 24  1  0  0  0  0
 15 25  1  0  0  0  0
 15 26  1  0  0  0  0
M  END
$$$$