5532835 5532834
 OpenBabel01161410203D

 33 35  0  0  0  0  0  0  0  0999 V2000
   12.5457    8.3073    0.6126 F   0  0  0  0  0  0  0  0  0  0  0  0
   11.9646    7.1087    0.4691 C   0  0  0  0  0  0  0  0  0  0  0  0
   10.8286    6.8063    1.2061 C   0  0  0  0  0  0  0  0  0  0  0  0
   10.2198    5.5548    1.0571 C   0  0  0  0  0  0  0  0  0  0  0  0
   10.7357    4.5910    0.1672 C   0  0  0  0  0  0  0  0  0  0  0  0
   11.8970    4.9342   -0.5567 C   0  0  0  0  0  0  0  0  0  0  0  0
   12.5067    6.1844   -0.4098 C   0  0  0  0  0  0  0  0  0  0  0  0
   10.1057    3.2670   -0.0074 C   0  0  0  0  0  0  0  0  0  0  0  0
    8.7461    3.0264    0.1520 C   0  0  0  0  0  0  0  0  0  0  0  0
    8.2494    1.7359   -0.0379 C   0  0  0  0  0  0  0  0  0  0  0  0
    9.1241    0.7212   -0.3835 C   0  0  0  0  0  0  0  0  0  0  0  0
   10.4355    0.9755   -0.5467 N   0  0  0  0  0  0  0  0  0  0  0  0
   10.9273    2.2509   -0.3574 N   0  0  0  0  0  0  0  0  0  0  0  0
    8.5060   -0.9249   -0.6428 S   0  0  0  0  0  0  0  0  0  0  0  0
   10.0783   -1.8290   -0.8526 C   0  0  0  0  0  0  0  0  0  0  0  0
    9.8476   -3.3140   -1.0126 C   0  0  0  0  0  0  0  0  0  0  0  0
    9.4503   -3.8416   -2.2417 C   0  0  0  0  0  0  0  0  0  0  0  0
    9.2384   -5.2132   -2.3499 C   0  0  0  0  0  0  0  0  0  0  0  0
    9.4234   -6.0210   -1.2353 C   0  0  0  0  0  0  0  0  0  0  0  0
    9.8158   -5.4207   -0.0515 C   0  0  0  0  0  0  0  0  0  0  0  0
   10.0317   -4.0941    0.0837 N   0  0  0  0  0  0  0  0  0  0  0  0
   10.4260    7.5404    1.8967 H   0  0  0  0  0  0  0  0  0  0  0  0
    9.3444    5.3390    1.6658 H   0  0  0  0  0  0  0  0  0  0  0  0
   12.3378    4.2197   -1.2513 H   0  0  0  0  0  0  0  0  0  0  0  0
   13.3990    6.4343   -0.9750 H   0  0  0  0  0  0  0  0  0  0  0  0
    8.0576    3.8258    0.4040 H   0  0  0  0  0  0  0  0  0  0  0  0
    7.1885    1.5399    0.0820 H   0  0  0  0  0  0  0  0  0  0  0  0
   10.7139   -1.6622    0.0246 H   0  0  0  0  0  0  0  0  0  0  0  0
   10.6132   -1.4510   -1.7315 H   0  0  0  0  0  0  0  0  0  0  0  0
    9.3039   -3.1964   -3.1023 H   0  0  0  0  0  0  0  0  0  0  0  0
    8.9282   -5.6466   -3.2960 H   0  0  0  0  0  0  0  0  0  0  0  0
    9.2643   -7.0918   -1.2859 H   0  0  0  0  0  0  0  0  0  0  0  0
    9.9717   -6.0076    0.8490 H   0  0  0  0  0  0  0  0  0  0  0  0
  1  2  1  0  0  0  0
  2  3  2  0  0  0  0
  2  7  1  0  0  0  0
  3  4  1  0  0  0  0
  3 22  1  0  0  0  0
  4  5  2  0  0  0  0
  4 23  1  0  0  0  0
  5  6  1  0  0  0  0
  5  8  1  0  0  0  0
  6  7  2  0  0  0  0
  6 24  1  0  0  0  0
  7 25  1  0  0  0  0
  8 13  1  0  0  0  0
  8  9  2  0  0  0  0
  9 10  1  0  0  0  0
  9 26  1  0  0  0  0
 10 11  2  0  0  0  0
 10 27  1  0  0  0  0
 11 12  1  0  0  0  0
 11 14  1  0  0  0  0
 12 13  2  0  0  0  0
 14 15  1  0  0  0  0
 15 16  1  0  0  0  0
 15 28  1  0  0  0  0
 15 29  1  0  0  0  0
 16 17  2  0  0  0  0
 16 21  1  0  0  0  0
 17 18  1  0  0  0  0
 17 30  1  0  0  0  0
 18 19  2  0  0  0  0
 18 31  1  0  0  0  0
 19 20  1  0  0  0  0
 19 32  1  0  0  0  0
 20 21  2  0  0  0  0
 20 33  1  0  0  0  0
M  END
$$$$