44785570 44785569
 OpenBabel01161410093D

 27 27  0  0  1  0  0  0  0  0999 V2000
    1.1589    1.6321    2.0256 O   0  0  0  0  0  0  0  0  0  0  0  0
    2.5287    1.6372    1.5307 N   0  0  0  0  0  0  0  0  0  0  0  0
    2.9679    0.2050    1.5142 C   0  0  1  0  0  0  0  0  0  0  0  0
    2.7189   -0.1791    2.5095 H   0  0  0  0  0  0  0  0  0  0  0  0
    2.2294   -0.7335    0.5015 C   0  0  0  0  0  0  0  0  0  0  0  0
    3.0452   -1.2915   -0.4230 F   0  0  0  0  0  0  0  0  0  0  0  0
    1.6259   -1.7584    1.1595 F   0  0  0  0  0  0  0  0  0  0  0  0
    1.2527   -0.0849   -0.1845 F   0  0  0  0  0  0  0  0  0  0  0  0
    4.4901    0.1608    1.3498 C   0  0  0  0  0  0  0  0  0  0  0  0
    5.0653    0.7571    0.2057 C   0  0  0  0  0  0  0  0  0  0  0  0
    6.4478    0.7637   -0.0043 C   0  0  0  0  0  0  0  0  0  0  0  0
    7.0398    1.3811   -1.2358 C   0  0  0  0  0  0  0  0  0  0  0  0
    7.2761    0.1577    0.9417 C   0  0  0  0  0  0  0  0  0  0  0  0
    6.7292   -0.4361    2.0795 C   0  0  0  0  0  0  0  0  0  0  0  0
    5.3420   -0.4475    2.2991 C   0  0  0  0  0  0  0  0  0  0  0  0
    4.8207   -1.1026    3.5496 C   0  0  0  0  0  0  0  0  0  0  0  0
    0.6847    2.1297    1.3276 H   0  0  0  0  0  0  0  0  0  0  0  0
    3.0327    2.1089    2.2880 H   0  0  0  0  0  0  0  0  0  0  0  0
    4.4156    1.2263   -0.5343 H   0  0  0  0  0  0  0  0  0  0  0  0
    6.2903    1.9435   -1.8025 H   0  0  0  0  0  0  0  0  0  0  0  0
    7.4464    0.6017   -1.8882 H   0  0  0  0  0  0  0  0  0  0  0  0
    7.8399    2.0776   -0.9651 H   0  0  0  0  0  0  0  0  0  0  0  0
    8.3537    0.1435    0.7982 H   0  0  0  0  0  0  0  0  0  0  0  0
    7.4034   -0.8975    2.7998 H   0  0  0  0  0  0  0  0  0  0  0  0
    4.0986   -1.8857    3.2982 H   0  0  0  0  0  0  0  0  0  0  0  0
    4.3495   -0.3576    4.1985 H   0  0  0  0  0  0  0  0  0  0  0  0
    5.6252   -1.5767    4.1222 H   0  0  0  0  0  0  0  0  0  0  0  0
  1  2  1  0  0  0  0
  1 17  1  0  0  0  0
  2  3  1  0  0  0  0
  2 18  1  0  0  0  0
  3  9  1  0  0  0  0
  3  5  1  0  0  0  0
  3  4  1  1  0  0  0
  5  8  1  0  0  0  0
  5  7  1  0  0  0  0
  5  6  1  0  0  0  0
  9 10  2  0  0  0  0
  9 15  1  0  0  0  0
 10 11  1  0  0  0  0
 10 19  1  0  0  0  0
 11 13  2  0  0  0  0
 11 12  1  0  0  0  0
 12 20  1  0  0  0  0
 12 21  1  0  0  0  0
 12 22  1  0  0  0  0
 13 14  1  0  0  0  0
 13 23  1  0  0  0  0
 14 15  2  0  0  0  0
 14 24  1  0  0  0  0
 15 16  1  0  0  0  0
 16 25  1  0  0  0  0
 16 26  1  0  0  0  0
 16 27  1  0  0  0  0
M  END
$$$$