890169 890168
 OpenBabel01161410213D

 37 36  0  0  0  0  0  0  0  0999 V2000
    8.2306   -2.2228   -2.9654 C   0  0  0  0  0  0  0  0  0  0  0  0
    8.7991   -0.8215   -3.1384 C   0  0  0  0  0  0  0  0  0  0  0  0
    8.4430    0.1681   -2.0233 C   0  0  0  0  0  0  0  0  0  0  0  0
    9.2650    0.0630   -0.7333 C   0  0  0  0  0  0  0  0  0  0  0  0
    8.9421   -1.1764    0.0985 C   0  0  0  0  0  0  0  0  0  0  0  0
    9.5809   -1.1420    1.4844 C   0  0  0  0  0  0  0  0  0  0  0  0
    9.1122   -2.2779    2.4061 C   0  0  0  0  0  0  0  0  0  0  0  0
    9.5629   -3.6868    1.9996 C   0  0  0  0  0  0  0  0  0  0  0  0
    8.5970   -4.4079    1.0489 C   0  0  0  0  0  0  0  0  0  0  0  0
    9.0971   -5.8087    0.6940 C   0  0  0  0  0  0  0  0  0  0  0  0
    8.9601   -6.6554    1.8313 O   0  0  0  0  0  0  0  0  0  0  0  0
    9.7560   -8.0587    1.8017 P   0  0  0  0  0  0  0  0  0  0  0  0
    8.6220   -8.9102    1.0359 O   0  0  0  0  0  0  0  0  0  0  0  0
    9.3166   -8.5469    3.2677 O   0  0  0  0  0  0  0  0  0  0  0  0
    8.8290   -2.8212   -2.2774 H   0  0  0  0  0  0  0  0  0  0  0  0
    8.2399   -2.7493   -3.9246 H   0  0  0  0  0  0  0  0  0  0  0  0
    7.1973   -2.1973   -2.6044 H   0  0  0  0  0  0  0  0  0  0  0  0
    8.3894   -0.4194   -4.0745 H   0  0  0  0  0  0  0  0  0  0  0  0
    9.8857   -0.8743   -3.2730 H   0  0  0  0  0  0  0  0  0  0  0  0
    7.3726    0.1076   -1.7935 H   0  0  0  0  0  0  0  0  0  0  0  0
    8.6099    1.1768   -2.4248 H   0  0  0  0  0  0  0  0  0  0  0  0
    9.0583    0.9574   -0.1330 H   0  0  0  0  0  0  0  0  0  0  0  0
   10.3359    0.0849   -0.9698 H   0  0  0  0  0  0  0  0  0  0  0  0
    9.3342   -2.0459   -0.4274 H   0  0  0  0  0  0  0  0  0  0  0  0
    7.8567   -1.2848    0.1959 H   0  0  0  0  0  0  0  0  0  0  0  0
    9.3353   -0.1899    1.9711 H   0  0  0  0  0  0  0  0  0  0  0  0
   10.6738   -1.1717    1.3883 H   0  0  0  0  0  0  0  0  0  0  0  0
    8.0224   -2.2423    2.5251 H   0  0  0  0  0  0  0  0  0  0  0  0
    9.5352   -2.0721    3.3984 H   0  0  0  0  0  0  0  0  0  0  0  0
    9.6436   -4.2860    2.9154 H   0  0  0  0  0  0  0  0  0  0  0  0
   10.5680   -3.6483    1.5642 H   0  0  0  0  0  0  0  0  0  0  0  0
    8.4750   -3.8494    0.1208 H   0  0  0  0  0  0  0  0  0  0  0  0
    7.6115   -4.4779    1.5232 H   0  0  0  0  0  0  0  0  0  0  0  0
   10.1399   -5.7546    0.3526 H   0  0  0  0  0  0  0  0  0  0  0  0
    8.4840   -6.2101   -0.1238 H   0  0  0  0  0  0  0  0  0  0  0  0
    8.8382   -8.9468    0.0797 H   0  0  0  0  0  0  0  0  0  0  0  0
    8.3432   -8.6596    3.2296 H   0  0  0  0  0  0  0  0  0  0  0  0
  1  2  1  0  0  0  0
  1 15  1  0  0  0  0
  1 16  1  0  0  0  0
  1 17  1  0  0  0  0
  2  3  1  0  0  0  0
  2 18  1  0  0  0  0
  2 19  1  0  0  0  0
  3  4  1  0  0  0  0
  3 20  1  0  0  0  0
  3 21  1  0  0  0  0
  4  5  1  0  0  0  0
  4 22  1  0  0  0  0
  4 23  1  0  0  0  0
  5  6  1  0  0  0  0
  5 24  1  0  0  0  0
  5 25  1  0  0  0  0
  6  7  1  0  0  0  0
  6 26  1  0  0  0  0
  6 27  1  0  0  0  0
  7  8  1  0  0  0  0
  7 28  1  0  0  0  0
  7 29  1  0  0  0  0
  8  9  1  0  0  0  0
  8 30  1  0  0  0  0
  8 31  1  0  0  0  0
  9 10  1  0  0  0  0
  9 32  1  0  0  0  0
  9 33  1  0  0  0  0
 10 11  1  0  0  0  0
 10 34  1  0  0  0  0
 10 35  1  0  0  0  0
 11 12  1  0  0  0  0
 12 14  1  0  0  0  0
 12 13  1  0  0  0  0
 13 36  1  0  0  0  0
 14 37  1  0  0  0  0
M  END
$$$$