495225 495224
 OpenBabel01161410213D

  9  9  0  0  0  0  0  0  0  0999 V2000
   -0.0268    0.8664   -0.0692 C   0  0  0  0  0  0  0  0  0  0  0  0
   -0.7350   -0.4590   -0.0691 C   0  0  0  0  0  0  0  0  0  0  0  0
    0.7610   -0.4076    0.0546 C   0  0  0  0  0  0  0  0  0  0  0  0
    0.0318    1.4113   -1.0036 H   0  0  0  0  0  0  0  0  0  0  0  0
   -0.1208    1.4930    0.8094 H   0  0  0  0  0  0  0  0  0  0  0  0
   -1.1567   -0.8107   -1.0038 H   0  0  0  0  0  0  0  0  0  0  0  0
   -1.3094   -0.7290    0.8098 H   0  0  0  0  0  0  0  0  0  0  0  0
    1.2005   -0.6424    1.0172 H   0  0  0  0  0  0  0  0  0  0  0  0
    1.3532   -0.7241   -0.7962 H   0  0  0  0  0  0  0  0  0  0  0  0
  1  3  1  0  0  0  0
  1  2  1  0  0  0  0
  1  4  1  0  0  0  0
  1  5  1  0  0  0  0
  2  3  1  0  0  0  0
  2  6  1  0  0  0  0
  2  7  1  0  0  0  0
  3  8  1  0  0  0  0
  3  9  1  0  0  0  0
M  END
$$$$