2800016 2800015
 OpenBabel01161410133D

 18 19  0  0  0  0  0  0  0  0999 V2000
    1.9515   -0.5975    0.1903 Cl  0  0  0  0  0  0  0  0  0  0  0  0
    3.5129    0.7712   -0.0828 P   0  0  3  0  0  0  0  0  0  0  0  0
    3.1146    1.5442   -1.6512 C   0  0  0  0  0  0  0  0  0  0  0  0
    3.4720    2.8070   -2.0816 C   0  0  0  0  0  0  0  0  0  0  0  0
    2.9438    2.9601   -3.3878 C   0  0  0  0  0  0  0  0  0  0  0  0
    2.3127    1.7768   -3.6837 C   0  0  0  0  0  0  0  0  0  0  0  0
    2.4205    0.9112   -2.6447 O   0  0  0  0  0  0  0  0  0  0  0  0
    3.2095    2.0600    1.1261 C   0  0  0  0  0  0  0  0  0  0  0  0
    2.5349    1.9296    2.3252 C   0  0  0  0  0  0  0  0  0  0  0  0
    2.5675    3.1989    2.9549 C   0  0  0  0  0  0  0  0  0  0  0  0
    3.2751    4.0224    2.1143 C   0  0  0  0  0  0  0  0  0  0  0  0
    3.6750    3.3409    1.0112 O   0  0  0  0  0  0  0  0  0  0  0  0
    4.0411    3.5409   -1.5271 H   0  0  0  0  0  0  0  0  0  0  0  0
    3.0177    3.8243   -4.0327 H   0  0  0  0  0  0  0  0  0  0  0  0
    1.7712    1.4089   -4.5438 H   0  0  0  0  0  0  0  0  0  0  0  0
    2.0644    1.0326    2.7064 H   0  0  0  0  0  0  0  0  0  0  0  0
    2.1324    3.4755    3.9046 H   0  0  0  0  0  0  0  0  0  0  0  0
    3.5670    5.0623    2.1544 H   0  0  0  0  0  0  0  0  0  0  0  0
  1  2  1  0  0  0  0
  2  8  1  0  0  0  0
  2  3  1  0  0  0  0
  3  4  2  0  0  0  0
  3  7  1  0  0  0  0
  4  5  1  0  0  0  0
  4 13  1  0  0  0  0
  5  6  2  0  0  0  0
  5 14  1  0  0  0  0
  6  7  1  0  0  0  0
  6 15  1  0  0  0  0
  8  9  2  0  0  0  0
  8 12  1  0  0  0  0
  9 10  1  0  0  0  0
  9 16  1  0  0  0  0
 10 11  2  0  0  0  0
 10 17  1  0  0  0  0
 11 12  1  0  0  0  0
 11 18  1  0  0  0  0
M  END
$$$$