17404010 17404009
 OpenBabel01161410053D

 18 18  0  0  0  0  0  0  0  0999 V2000
    2.9842    1.9803   -1.3324 C   0  0  0  0  0  0  0  0  0  0  0  0
    4.2415    2.7099   -0.8930 C   0  0  0  0  0  0  0  0  0  0  0  0
    5.3535    1.8418   -1.1144 O   0  0  0  0  0  0  0  0  0  0  0  0
    6.5578    2.3641   -0.7781 C   0  0  0  0  0  0  0  0  0  0  0  0
    6.6434    3.5957   -0.2839 N   0  0  0  0  0  0  0  0  0  0  0  0
    8.2403    3.9302    0.0110 S   0  0  0  0  0  0  0  0  0  0  0  0
    8.8429    2.4116   -0.5029 C   0  0  0  0  0  0  0  0  0  0  0  0
    7.7740    1.6423   -0.9216 C   0  0  0  0  0  0  0  0  0  0  0  0
   10.2909    2.0957   -0.4504 C   0  0  0  0  0  0  0  0  0  0  0  0
   11.0557    2.4467   -2.0161 Cl  0  0  0  0  0  0  0  0  0  0  0  0
    2.0975    2.5997   -1.1701 H   0  0  0  0  0  0  0  0  0  0  0  0
    2.8676    1.0430   -0.7782 H   0  0  0  0  0  0  0  0  0  0  0  0
    3.0424    1.7182   -2.3940 H   0  0  0  0  0  0  0  0  0  0  0  0
    4.1553    2.9574    0.1721 H   0  0  0  0  0  0  0  0  0  0  0  0
    4.3444    3.6276   -1.4848 H   0  0  0  0  0  0  0  0  0  0  0  0
    7.8496    0.6345   -1.3067 H   0  0  0  0  0  0  0  0  0  0  0  0
   10.4474    1.0336   -0.2371 H   0  0  0  0  0  0  0  0  0  0  0  0
   10.8143    2.6728    0.3182 H   0  0  0  0  0  0  0  0  0  0  0  0
  1  2  1  0  0  0  0
  1 11  1  0  0  0  0
  1 12  1  0  0  0  0
  1 13  1  0  0  0  0
  2  3  1  0  0  0  0
  2 14  1  0  0  0  0
  2 15  1  0  0  0  0
  3  4  1  0  0  0  0
  4  8  1  0  0  0  0
  4  5  2  0  0  0  0
  5  6  1  0  0  0  0
  6  7  1  0  0  0  0
  7  8  2  0  0  0  0
  7  9  1  0  0  0  0
  8 16  1  0  0  0  0
  9 10  1  0  0  0  0
  9 17  1  0  0  0  0
  9 18  1  0  0  0  0
M  END
$$$$