7388030 7388029
 OpenBabel01161410183D

 16 15  0  0  1  0  0  0  0  0999 V2000
    3.8530    1.2503   -0.2501 Cl  0  0  0  0  0  0  0  0  0  0  0  0
    2.9938    1.7234    1.2697 C   0  0  3  0  0  0  0  0  0  0  0  0
    1.4467    1.7004    1.0962 C   0  0  0  0  0  0  0  0  0  0  0  0
    0.6207    2.2752    2.5996 Cl  0  0  0  0  0  0  0  0  0  0  0  0
    0.9270    2.8295   -0.2180 Cl  0  0  0  0  0  0  0  0  0  0  0  0
    0.8005    0.0678    0.7021 Cl  0  0  0  0  0  0  0  0  0  0  0  0
    3.6052    0.6326    2.6538 S   0  0  0  0  0  0  0  0  0  0  0  0
    5.6369    0.9871    2.7486 S   0  0  0  0  0  0  0  0  0  0  0  0
    5.8432    2.2323    4.1101 C   0  0  3  0  0  0  0  0  0  0  0  0
    7.3265    2.4554    4.5291 C   0  0  0  0  0  0  0  0  0  0  0  0
    8.3399    3.1203    3.1994 Cl  0  0  0  0  0  0  0  0  0  0  0  0
    7.4324    3.5996    5.9262 Cl  0  0  0  0  0  0  0  0  0  0  0  0
    8.0872    0.9150    5.0925 Cl  0  0  0  0  0  0  0  0  0  0  0  0
    5.0243    3.7654    3.6210 Cl  0  0  0  0  0  0  0  0  0  0  0  0
    3.3087    2.7478    1.4884 H   0  0  0  0  0  0  0  0  0  0  0  0
    5.2854    1.8529    4.9770 H   0  0  0  0  0  0  0  0  0  0  0  0
  1  2  1  0  0  0  0
  2  7  1  0  0  0  0
  2  3  1  0  0  0  0
  2 15  1  0  0  0  0
  3  6  1  0  0  0  0
  3  5  1  0  0  0  0
  3  4  1  0  0  0  0
  7  8  1  0  0  0  0
  8  9  1  0  0  0  0
  9 14  1  0  0  0  0
  9 10  1  0  0  0  0
  9 16  1  0  0  0  0
 10 13  1  0  0  0  0
 10 12  1  0  0  0  0
 10 11  1  0  0  0  0
M  END
$$$$