8254082 8254081
 OpenBabel01161410483D

 41 42  0  0  1  0  0  0  0  0999 V2000
    1.2048   -0.3204   -0.3777 C   0  0  0  0  0  0  0  0  0  0  0  0
    2.5834    0.2031   -0.8397 C   0  0  0  0  0  0  0  0  0  0  0  0
    3.2252    1.1132    0.2767 C   0  0  3  0  0  0  0  0  0  0  0  0
    4.6799    1.5297   -0.0393 C   0  0  0  0  0  0  0  0  0  0  0  0
    5.2515    2.4817    0.9633 C   0  0  3  0  0  0  0  0  0  0  0  0
    4.9294    3.8551    0.6820 O   0  0  0  0  0  0  0  0  0  0  0  0
    4.3793    3.2945    1.8816 C   0  0  3  0  0  0  0  0  0  0  0  0
    2.8814    3.1418    1.8613 C   0  0  3  0  0  0  0  0  0  0  0  0
    2.3834    2.3718    0.6135 C   0  0  0  0  0  0  0  0  0  0  0  0
    2.1834    2.4430    3.5767 Si  0  0  0  0  0  0  0  0  0  0  0  0
    2.7617    0.6908    3.8773 C   0  0  0  0  0  0  0  0  0  0  0  0
    2.8084    3.5548    4.9620 C   0  0  0  0  0  0  0  0  0  0  0  0
    0.3072    2.5102    3.5374 C   0  0  0  0  0  0  0  0  0  0  0  0
    3.4719   -1.0337   -1.1002 C   0  0  0  0  0  0  0  0  0  0  0  0
    2.3900    0.9470   -2.1743 C   0  0  0  0  0  0  0  0  0  0  0  0
    0.8114   -1.0676   -1.0774 H   0  0  0  0  0  0  0  0  0  0  0  0
    0.4581    0.4775   -0.3217 H   0  0  0  0  0  0  0  0  0  0  0  0
    1.2718   -0.7947    0.6078 H   0  0  0  0  0  0  0  0  0  0  0  0
    3.2729    0.4973    1.1821 H   0  0  0  0  0  0  0  0  0  0  0  0
    4.7529    1.9829   -1.0333 H   0  0  0  0  0  0  0  0  0  0  0  0
    5.3201    0.6408   -0.0506 H   0  0  0  0  0  0  0  0  0  0  0  0
    6.2728    2.2636    1.2429 H   0  0  0  0  0  0  0  0  0  0  0  0
    4.7884    3.6828    2.8043 H   0  0  0  0  0  0  0  0  0  0  0  0
    2.4436    4.1481    1.8240 H   0  0  0  0  0  0  0  0  0  0  0  0
    1.3271    2.1206    0.7404 H   0  0  0  0  0  0  0  0  0  0  0  0
    2.4319    3.0569   -0.2435 H   0  0  0  0  0  0  0  0  0  0  0  0
    2.2704   -0.0085    3.1947 H   0  0  0  0  0  0  0  0  0  0  0  0
    2.5240    0.3788    4.8989 H   0  0  0  0  0  0  0  0  0  0  0  0
    3.8438    0.6061    3.7408 H   0  0  0  0  0  0  0  0  0  0  0  0
    2.5619    4.6006    4.7569 H   0  0  0  0  0  0  0  0  0  0  0  0
    3.8936    3.4694    5.0699 H   0  0  0  0  0  0  0  0  0  0  0  0
    2.3490    3.2727    5.9142 H   0  0  0  0  0  0  0  0  0  0  0  0
   -0.0375    3.5331    3.3609 H   0  0  0  0  0  0  0  0  0  0  0  0
   -0.1074    2.1691    4.4905 H   0  0  0  0  0  0  0  0  0  0  0  0
   -0.0908    1.8705    2.7449 H   0  0  0  0  0  0  0  0  0  0  0  0
    2.9822   -1.7369   -1.7842 H   0  0  0  0  0  0  0  0  0  0  0  0
    3.6819   -1.5712   -0.1687 H   0  0  0  0  0  0  0  0  0  0  0  0
    4.4273   -0.7609   -1.5601 H   0  0  0  0  0  0  0  0  0  0  0  0
    1.9364    0.2888   -2.9253 H   0  0  0  0  0  0  0  0  0  0  0  0
    3.3403    1.2967   -2.5892 H   0  0  0  0  0  0  0  0  0  0  0  0
    1.7289    1.8125   -2.0649 H   0  0  0  0  0  0  0  0  0  0  0  0
  1  2  1  0  0  0  0
  1 16  1  0  0  0  0
  1 17  1  0  0  0  0
  1 18  1  0  0  0  0
  2 15  1  0  0  0  0
  2 14  1  0  0  0  0
  2  3  1  0  0  0  0
  3  9  1  0  0  0  0
  3  4  1  0  0  0  0
  3 19  1  0  0  0  0
  4  5  1  0  0  0  0
  4 20  1  0  0  0  0
  4 21  1  0  0  0  0
  5  7  1  0  0  0  0
  5  6  1  0  0  0  0
  5 22  1  0  0  0  0
  6  7  1  0  0  0  0
  7  8  1  0  0  0  0
  7 23  1  0  0  0  0
  8  9  1  0  0  0  0
  8 10  1  0  0  0  0
  8 24  1  0  0  0  0
  9 25  1  0  0  0  0
  9 26  1  0  0  0  0
 10 13  1  0  0  0  0
 10 12  1  0  0  0  0
 10 11  1  0  0  0  0
 11 27  1  0  0  0  0
 11 28  1  0  0  0  0
 11 29  1  0  0  0  0
 12 30  1  0  0  0  0
 12 31  1  0  0  0  0
 12 32  1  0  0  0  0
 13 33  1  0  0  0  0
 13 34  1  0  0  0  0
 13 35  1  0  0  0  0
 14 36  1  0  0  0  0
 14 37  1  0  0  0  0
 14 38  1  0  0  0  0
 15 39  1  0  0  0  0
 15 40  1  0  0  0  0
 15 41  1  0  0  0  0
M  END
$$$$