36703882 36703881
 OpenBabel01161410513D

 32 33  0  0  0  0  0  0  0  0999 V2000
    2.5110    0.4872    3.0239 C   0  0  0  0  0  0  0  0  0  0  0  0
    3.9169    0.4616    2.5371 C   0  0  0  0  0  0  0  0  0  0  0  0
    4.7231    1.9282    2.1514 S   0  0  0  0  0  0  0  0  0  0  0  0
    6.1142    1.0333    1.7103 C   0  0  0  0  0  0  0  0  0  0  0  0
    5.8842   -0.3208    1.8731 C   0  0  0  0  0  0  0  0  0  0  0  0
    4.6210   -0.6354    2.3577 N   0  0  0  0  0  0  0  0  0  0  0  0
    6.8531   -1.4270    1.5834 C   0  0  0  0  0  0  0  0  0  0  0  0
    7.3107   -1.3555    0.2348 O   0  0  0  0  0  0  0  0  0  0  0  0
    8.1750   -2.3054   -0.0838 C   0  0  0  0  0  0  0  0  0  0  0  0
    8.6259   -2.3059   -1.3635 O   0  0  0  0  0  0  0  0  0  0  0  0
    9.5273   -3.3728   -1.4514 N   0  0  0  0  0  0  0  0  0  0  0  0
    9.5031   -3.9001   -0.2157 C   0  0  0  0  0  0  0  0  0  0  0  0
    8.6798   -3.2453    0.6733 N   0  0  0  0  0  0  0  0  0  0  0  0
   10.3593   -5.0744    0.1908 C   0  0  0  0  0  0  0  0  0  0  0  0
    9.6878   -5.8675    1.3306 C   0  0  0  0  0  0  0  0  0  0  0  0
   10.5849   -6.0434   -0.9879 C   0  0  0  0  0  0  0  0  0  0  0  0
   11.7263   -4.5649    0.6837 C   0  0  0  0  0  0  0  0  0  0  0  0
    2.3529    1.2873    3.7541 H   0  0  0  0  0  0  0  0  0  0  0  0
    2.2584   -0.4618    3.5081 H   0  0  0  0  0  0  0  0  0  0  0  0
    1.8215    0.6350    2.1865 H   0  0  0  0  0  0  0  0  0  0  0  0
    7.0082    1.5231    1.3513 H   0  0  0  0  0  0  0  0  0  0  0  0
    6.3595   -2.3921    1.7574 H   0  0  0  0  0  0  0  0  0  0  0  0
    7.7011   -1.3342    2.2748 H   0  0  0  0  0  0  0  0  0  0  0  0
    9.5507   -5.2494    2.2256 H   0  0  0  0  0  0  0  0  0  0  0  0
   10.2916   -6.7349    1.6209 H   0  0  0  0  0  0  0  0  0  0  0  0
    8.6992   -6.2336    1.0292 H   0  0  0  0  0  0  0  0  0  0  0  0
   11.1198   -5.5591   -1.8133 H   0  0  0  0  0  0  0  0  0  0  0  0
    9.6323   -6.4142   -1.3845 H   0  0  0  0  0  0  0  0  0  0  0  0
   11.1790   -6.9115   -0.6798 H   0  0  0  0  0  0  0  0  0  0  0  0
   12.2516   -4.0102   -0.1028 H   0  0  0  0  0  0  0  0  0  0  0  0
   12.3717   -5.3939    0.9953 H   0  0  0  0  0  0  0  0  0  0  0  0
   11.6135   -3.8887    1.5395 H   0  0  0  0  0  0  0  0  0  0  0  0
  1  2  1  0  0  0  0
  1 18  1  0  0  0  0
  1 19  1  0  0  0  0
  1 20  1  0  0  0  0
  2  3  1  0  0  0  0
  2  6  2  0  0  0  0
  3  4  1  0  0  0  0
  4  5  2  0  0  0  0
  4 21  1  0  0  0  0
  5  6  1  0  0  0  0
  5  7  1  0  0  0  0
  7  8  1  0  0  0  0
  7 22  1  0  0  0  0
  7 23  1  0  0  0  0
  8  9  1  0  0  0  0
  9 13  2  0  0  0  0
  9 10  1  0  0  0  0
 10 11  1  0  0  0  0
 11 12  2  0  0  0  0
 12 13  1  0  0  0  0
 12 14  1  0  0  0  0
 14 17  1  0  0  0  0
 14 16  1  0  0  0  0
 14 15  1  0  0  0  0
 15 24  1  0  0  0  0
 15 25  1  0  0  0  0
 15 26  1  0  0  0  0
 16 27  1  0  0  0  0
 16 28  1  0  0  0  0
 16 29  1  0  0  0  0
 17 30  1  0  0  0  0
 17 31  1  0  0  0  0
 17 32  1  0  0  0  0
M  END
$$$$