4801654 4801653
 OpenBabel01161410123D

 34 35  0  0  1  0  0  0  0  0999 V2000
    1.2516   -0.2338   -0.4256 O   0  0  0  0  0  0  0  0  0  0  0  0
    2.6005    0.0348   -0.8022 C   0  0  0  0  0  0  0  0  0  0  0  0
    3.3710   -1.2264   -1.2359 C   0  0  1  0  0  0  0  0  0  0  0  0
    4.2518   -0.8290   -1.7590 H   0  0  0  0  0  0  0  0  0  0  0  0
    3.9308   -1.9557   -0.1289 O   0  0  0  0  0  0  0  0  0  0  0  0
    3.0345   -2.8199    0.5849 C   0  0  1  0  0  0  0  0  0  0  0  0
    3.6767   -3.4270    1.2356 H   0  0  0  0  0  0  0  0  0  0  0  0
    2.0676   -2.1133    1.3605 O   0  0  0  0  0  0  0  0  0  0  0  0
    2.3598   -1.9885    2.6918 C   0  0  0  0  0  0  0  0  0  0  0  0
    1.2695   -2.0486    3.5623 C   0  0  0  0  0  0  0  0  0  0  0  0
    1.4639   -1.9629    4.9432 C   0  0  0  0  0  0  0  0  0  0  0  0
    2.7514   -1.7992    5.4496 C   0  0  0  0  0  0  0  0  0  0  0  0
    3.8405   -1.7004    4.5850 C   0  0  0  0  0  0  0  0  0  0  0  0
    3.6432   -1.7818    3.2031 C   0  0  0  0  0  0  0  0  0  0  0  0
    2.9985   -1.7139    7.1491 Cl  0  0  0  0  0  0  0  0  0  0  0  0
    2.3532   -3.8286   -0.3648 C   0  0  1  0  0  0  0  0  0  0  0  0
    1.5944   -4.3913    0.1899 H   0  0  0  0  0  0  0  0  0  0  0  0
    1.6984   -3.1494   -1.5715 C   0  0  2  0  0  0  0  0  0  0  0  0
    1.4444   -3.9123   -2.3182 H   0  0  0  0  0  0  0  0  0  0  0  0
    2.6524   -2.1475   -2.2377 C   0  0  1  0  0  0  0  0  0  0  0  0
    3.4308   -2.7338   -2.7443 H   0  0  0  0  0  0  0  0  0  0  0  0
    1.9762   -1.4003   -3.2486 O   0  0  0  0  0  0  0  0  0  0  0  0
    0.4514   -2.5284   -1.2408 O   0  0  0  0  0  0  0  0  0  0  0  0
    3.3301   -4.7759   -0.8430 O   0  0  0  0  0  0  0  0  0  0  0  0
    0.8981    0.6003   -0.0614 H   0  0  0  0  0  0  0  0  0  0  0  0
    3.1007    0.5080    0.0478 H   0  0  0  0  0  0  0  0  0  0  0  0
    2.5632    0.7507   -1.6313 H   0  0  0  0  0  0  0  0  0  0  0  0
    0.2651   -2.1828    3.1655 H   0  0  0  0  0  0  0  0  0  0  0  0
    0.6120   -2.0306    5.6133 H   0  0  0  0  0  0  0  0  0  0  0  0
    4.8444   -1.5593    4.9792 H   0  0  0  0  0  0  0  0  0  0  0  0
    4.5019   -1.6782    2.5456 H   0  0  0  0  0  0  0  0  0  0  0  0
    1.0310   -1.3961   -2.9921 H   0  0  0  0  0  0  0  0  0  0  0  0
    0.6454   -1.7359   -0.6877 H   0  0  0  0  0  0  0  0  0  0  0  0
    4.1643   -4.2946   -0.9998 H   0  0  0  0  0  0  0  0  0  0  0  0
  1  2  1  0  0  0  0
  1 25  1  0  0  0  0
  2  3  1  0  0  0  0
  2 26  1  0  0  0  0
  2 27  1  0  0  0  0
  3 20  1  0  0  0  0
  3  5  1  0  0  0  0
  3  4  1  6  0  0  0
  5  6  1  0  0  0  0
  6 16  1  0  0  0  0
  6  7  1  1  0  0  0
  6  8  1  0  0  0  0
  8  9  1  0  0  0  0
  9 10  2  0  0  0  0
  9 14  1  0  0  0  0
 10 11  1  0  0  0  0
 10 28  1  0  0  0  0
 11 12  2  0  0  0  0
 11 29  1  0  0  0  0
 12 13  1  0  0  0  0
 12 15  1  0  0  0  0
 13 14  2  0  0  0  0
 13 30  1  0  0  0  0
 14 31  1  0  0  0  0
 16 18  1  0  0  0  0
 16 24  1  0  0  0  0
 16 17  1  1  0  0  0
 18 20  1  0  0  0  0
 18 19  1  6  0  0  0
 18 23  1  0  0  0  0
 20 21  1  6  0  0  0
 20 22  1  0  0  0  0
 22 32  1  0  0  0  0
 23 33  1  0  0  0  0
 24 34  1  0  0  0  0
M  END
$$$$