4354297 4354296
 OpenBabel01161410113D

 20 20  0  0  0  0  0  0  0  0999 V2000
    3.2817   -0.5618    0.8804 O   0  0  0  0  0  0  0  0  0  0  0  0
    2.3886    0.1628    0.0361 C   0  0  0  0  0  0  0  0  0  0  0  0
    2.9966    0.4045   -1.3218 C   0  0  0  0  0  0  0  0  0  0  0  0
    2.9004    1.6840   -1.8955 C   0  0  0  0  0  0  0  0  0  0  0  0
    3.4146    1.9390   -3.1676 C   0  0  0  0  0  0  0  0  0  0  0  0
    3.9797    0.9057   -3.9121 C   0  0  0  0  0  0  0  0  0  0  0  0
    4.0114   -0.3906   -3.3982 C   0  0  0  0  0  0  0  0  0  0  0  0
    3.6300   -0.6163   -2.0552 C   0  0  0  0  0  0  0  0  0  0  0  0
    3.7215   -1.9390   -1.5357 N   0  0  0  0  0  0  0  0  0  0  0  0
    4.6182   -1.4340   -4.1380 N   0  0  0  0  0  0  0  0  0  0  0  0
    2.8518   -0.6085    1.7512 H   0  0  0  0  0  0  0  0  0  0  0  0
    2.1574    1.1097    0.5353 H   0  0  0  0  0  0  0  0  0  0  0  0
    1.4614   -0.4097   -0.0726 H   0  0  0  0  0  0  0  0  0  0  0  0
    2.4334    2.4986   -1.3462 H   0  0  0  0  0  0  0  0  0  0  0  0
    3.3627    2.9413   -3.5844 H   0  0  0  0  0  0  0  0  0  0  0  0
    4.3709    1.1139   -4.9033 H   0  0  0  0  0  0  0  0  0  0  0  0
    3.7530   -1.8776   -0.5122 H   0  0  0  0  0  0  0  0  0  0  0  0
    4.5854   -2.3561   -1.8782 H   0  0  0  0  0  0  0  0  0  0  0  0
    4.1891   -2.3183   -3.8668 H   0  0  0  0  0  0  0  0  0  0  0  0
    4.5410   -1.2854   -5.1389 H   0  0  0  0  0  0  0  0  0  0  0  0
  1  2  1  0  0  0  0
  1 11  1  0  0  0  0
  2  3  1  0  0  0  0
  2 12  1  0  0  0  0
  2 13  1  0  0  0  0
  3  8  1  0  0  0  0
  3  4  2  0  0  0  0
  4  5  1  0  0  0  0
  4 14  1  0  0  0  0
  5  6  2  0  0  0  0
  5 15  1  0  0  0  0
  6  7  1  0  0  0  0
  6 16  1  0  0  0  0
  7  8  2  0  0  0  0
  7 10  1  0  0  0  0
  8  9  1  0  0  0  0
  9 17  1  0  0  0  0
  9 18  1  0  0  0  0
 10 19  1  0  0  0  0
 10 20  1  0  0  0  0
M  END
$$$$