29371465 29371464
 OpenBabel01161410223D

 23 23  0  0  1  0  0  0  0  0999 V2000
    2.8900   -0.0846   -1.3609 C   0  0  0  0  0  0  0  0  0  0  0  0
    2.4774    0.2219    0.0693 C   0  0  0  0  0  0  0  0  0  0  0  0
    3.3575    1.2869    0.7155 C   0  0  3  0  0  0  0  0  0  0  0  0
    3.2361    2.5282    0.0024 O   0  0  0  0  0  0  0  0  0  0  0  0
    3.0543    3.5265    1.0151 C   0  0  3  0  0  0  0  0  0  0  0  0
    2.3302    2.7565    2.1053 C   0  0  3  0  0  0  0  0  0  0  0  0
    2.9629    1.4730    2.0834 O   0  0  0  0  0  0  0  0  0  0  0  0
    2.3819    3.3467    3.4999 C   0  0  0  0  0  0  0  0  0  0  0  0
    4.4191    4.0902    1.3954 C   0  0  0  0  0  0  0  0  0  0  0  0
    2.2520   -0.8703   -1.7784 H   0  0  0  0  0  0  0  0  0  0  0  0
    3.9277   -0.4329   -1.4033 H   0  0  0  0  0  0  0  0  0  0  0  0
    2.7974    0.7987   -2.0012 H   0  0  0  0  0  0  0  0  0  0  0  0
    2.5101   -0.6945    0.6694 H   0  0  0  0  0  0  0  0  0  0  0  0
    1.4328    0.5561    0.0704 H   0  0  0  0  0  0  0  0  0  0  0  0
    4.4090    0.9777    0.7056 H   0  0  0  0  0  0  0  0  0  0  0  0
    2.4307    4.3322    0.6138 H   0  0  0  0  0  0  0  0  0  0  0  0
    1.2834    2.6015    1.8146 H   0  0  0  0  0  0  0  0  0  0  0  0
    3.4042    3.3676    3.8922 H   0  0  0  0  0  0  0  0  0  0  0  0
    1.8040    2.7246    4.1922 H   0  0  0  0  0  0  0  0  0  0  0  0
    1.9704    4.3604    3.5178 H   0  0  0  0  0  0  0  0  0  0  0  0
    5.0782    3.3173    1.8050 H   0  0  0  0  0  0  0  0  0  0  0  0
    4.3264    4.8963    2.1290 H   0  0  0  0  0  0  0  0  0  0  0  0
    4.9218    4.4893    0.5075 H   0  0  0  0  0  0  0  0  0  0  0  0
  1  2  1  0  0  0  0
  1 10  1  0  0  0  0
  1 11  1  0  0  0  0
  1 12  1  0  0  0  0
  2  3  1  0  0  0  0
  2 13  1  0  0  0  0
  2 14  1  0  0  0  0
  3  7  1  0  0  0  0
  3  4  1  0  0  0  0
  3 15  1  0  0  0  0
  4  5  1  0  0  0  0
  5  6  1  0  0  0  0
  5  9  1  0  0  0  0
  5 16  1  0  0  0  0
  6  7  1  0  0  0  0
  6  8  1  0  0  0  0
  6 17  1  0  0  0  0
  8 18  1  0  0  0  0
  8 19  1  0  0  0  0
  8 20  1  0  0  0  0
  9 21  1  0  0  0  0
  9 22  1  0  0  0  0
  9 23  1  0  0  0  0
M  END
$$$$