48554154 48554153
 OpenBabel01161410493D

 25 25  0  0  1  0  0  0  0  0999 V2000
    1.7238    0.7959    1.3072 O   0  0  0  0  0  0  0  0  0  0  0  0
    1.7198   -0.0385    0.1574 C   0  0  0  0  0  0  0  0  0  0  0  0
    2.7257   -1.1535    0.3652 C   0  0  3  0  0  0  0  0  0  0  0  0
    2.3467   -2.2724    1.3668 C   0  0  0  0  0  0  0  0  0  0  0  0
    3.0013   -3.2972    0.3942 C   0  0  3  0  0  0  0  0  0  0  0  0
    2.7574   -2.2473   -0.7280 C   0  0  0  0  0  0  0  0  0  0  0  0
    4.4561   -3.6933    0.6963 C   0  0  0  0  0  0  0  0  0  0  0  0
    4.5000   -4.5941    1.9324 C   0  0  0  0  0  0  0  0  0  0  0  0
    5.0601   -4.4336   -0.4977 C   0  0  0  0  0  0  0  0  0  0  0  0
    1.1043    1.5253    1.1324 H   0  0  0  0  0  0  0  0  0  0  0  0
    1.9929    0.5680   -0.7114 H   0  0  0  0  0  0  0  0  0  0  0  0
    0.7070   -0.4275    0.0111 H   0  0  0  0  0  0  0  0  0  0  0  0
    3.7286   -0.7460    0.5584 H   0  0  0  0  0  0  0  0  0  0  0  0
    1.2670   -2.4229    1.4881 H   0  0  0  0  0  0  0  0  0  0  0  0
    2.7944   -2.1740    2.3593 H   0  0  0  0  0  0  0  0  0  0  0  0
    2.3842   -4.1963    0.2561 H   0  0  0  0  0  0  0  0  0  0  0  0
    3.5414   -2.1255   -1.4793 H   0  0  0  0  0  0  0  0  0  0  0  0
    1.8022   -2.3905   -1.2487 H   0  0  0  0  0  0  0  0  0  0  0  0
    5.0615   -2.8002    0.8935 H   0  0  0  0  0  0  0  0  0  0  0  0
    3.9061   -5.5028    1.7830 H   0  0  0  0  0  0  0  0  0  0  0  0
    4.1010   -4.0812    2.8128 H   0  0  0  0  0  0  0  0  0  0  0  0
    5.5284   -4.8941    2.1593 H   0  0  0  0  0  0  0  0  0  0  0  0
    4.4620   -5.3109   -0.7668 H   0  0  0  0  0  0  0  0  0  0  0  0
    6.0781   -4.7696   -0.2737 H   0  0  0  0  0  0  0  0  0  0  0  0
    5.1138   -3.7876   -1.3791 H   0  0  0  0  0  0  0  0  0  0  0  0
  1  2  1  0  0  0  0
  1 10  1  0  0  0  0
  2  3  1  0  0  0  0
  2 11  1  0  0  0  0
  2 12  1  0  0  0  0
  3  6  1  0  0  0  0
  3  4  1  0  0  0  0
  3 13  1  0  0  0  0
  4  5  1  0  0  0  0
  4 14  1  0  0  0  0
  4 15  1  0  0  0  0
  5  6  1  0  0  0  0
  5  7  1  0  0  0  0
  5 16  1  0  0  0  0
  6 17  1  0  0  0  0
  6 18  1  0  0  0  0
  7  9  1  0  0  0  0
  7  8  1  0  0  0  0
  7 19  1  0  0  0  0
  8 20  1  0  0  0  0
  8 21  1  0  0  0  0
  8 22  1  0  0  0  0
  9 23  1  0  0  0  0
  9 24  1  0  0  0  0
  9 25  1  0  0  0  0
M  END
$$$$