44815937 44815936
 OpenBabel01161410093D

 25 26  0  0  0  0  0  0  0  0999 V2000
    4.1028   -3.8866   -1.0207 Cl  0  0  0  0  0  0  0  0  0  0  0  0
    3.1368   -2.5519   -1.5245 C   0  0  0  0  0  0  0  0  0  0  0  0
    3.4700   -1.8801   -2.6995 C   0  0  0  0  0  0  0  0  0  0  0  0
    2.6926   -0.8018   -3.1133 C   0  0  0  0  0  0  0  0  0  0  0  0
    1.6088   -0.4349   -2.3328 C   0  0  0  0  0  0  0  0  0  0  0  0
    1.2544   -1.0682   -1.1932 N   0  0  0  0  0  0  0  0  0  0  0  0
    2.0196   -2.1209   -0.8115 C   0  0  0  0  0  0  0  0  0  0  0  0
    1.6991   -2.7862    0.3560 O   0  0  0  0  0  0  0  0  0  0  0  0
    0.3811   -2.5422    0.8309 C   0  0  0  0  0  0  0  0  0  0  0  0
   -0.0416   -3.6959    1.7380 C   0  0  0  0  0  0  0  0  0  0  0  0
   -1.2186   -3.1242    2.5108 C   0  0  0  0  0  0  0  0  0  0  0  0
   -0.9197   -1.6316    2.6572 C   0  0  0  0  0  0  0  0  0  0  0  0
    0.3047   -1.3548    1.7870 C   0  0  0  0  0  0  0  0  0  0  0  0
    4.3264   -2.1917   -3.2905 H   0  0  0  0  0  0  0  0  0  0  0  0
    2.9282   -0.2595   -4.0233 H   0  0  0  0  0  0  0  0  0  0  0  0
    0.9764    0.4036   -2.6115 H   0  0  0  0  0  0  0  0  0  0  0  0
   -0.3517   -2.4601    0.0156 H   0  0  0  0  0  0  0  0  0  0  0  0
    0.7735   -3.9753    2.4179 H   0  0  0  0  0  0  0  0  0  0  0  0
   -0.3070   -4.5922    1.1688 H   0  0  0  0  0  0  0  0  0  0  0  0
   -2.1440   -3.2595    1.9387 H   0  0  0  0  0  0  0  0  0  0  0  0
   -1.3525   -3.6164    3.4783 H   0  0  0  0  0  0  0  0  0  0  0  0
   -1.7799   -1.0406    2.3223 H   0  0  0  0  0  0  0  0  0  0  0  0
   -0.7232   -1.3625    3.7006 H   0  0  0  0  0  0  0  0  0  0  0  0
    0.2209   -0.3988    1.2617 H   0  0  0  0  0  0  0  0  0  0  0  0
    1.2088   -1.2986    2.4058 H   0  0  0  0  0  0  0  0  0  0  0  0
  1  2  1  0  0  0  0
  2  7  1  0  0  0  0
  2  3  2  0  0  0  0
  3  4  1  0  0  0  0
  3 14  1  0  0  0  0
  4  5  2  0  0  0  0
  4 15  1  0  0  0  0
  5  6  1  0  0  0  0
  5 16  1  0  0  0  0
  6  7  2  0  0  0  0
  7  8  1  0  0  0  0
  8  9  1  0  0  0  0
  9 13  1  0  0  0  0
  9 10  1  0  0  0  0
  9 17  1  0  0  0  0
 10 11  1  0  0  0  0
 10 18  1  0  0  0  0
 10 19  1  0  0  0  0
 11 12  1  0  0  0  0
 11 20  1  0  0  0  0
 11 21  1  0  0  0  0
 12 13  1  0  0  0  0
 12 22  1  0  0  0  0
 12 23  1  0  0  0  0
 13 24  1  0  0  0  0
 13 25  1  0  0  0  0
M  END
$$$$