6880105 6880104
 OpenBabel01161410503D

 16 15  0  0  1  0  0  0  0  0999 V2000
    4.7533    1.0287   -0.8096 Cl  0  0  0  0  0  0  0  0  0  0  0  0
    3.1643    1.1503    0.0016 C   0  0  0  0  0  0  0  0  0  0  0  0
    2.9630    0.0249    1.0273 C   0  0  3  0  0  0  0  0  0  0  0  0
    2.8453   -1.3736    0.3850 C   0  0  3  0  0  0  0  0  0  0  0  0
    2.6964   -2.5102    1.4063 C   0  0  0  0  0  0  0  0  0  0  0  0
    1.1581   -2.3925    2.3100 Cl  0  0  0  0  0  0  0  0  0  0  0  0
    1.7579   -1.4009   -0.5478 O   0  0  0  0  0  0  0  0  0  0  0  0
    4.0151    0.0462    1.9982 O   0  0  0  0  0  0  0  0  0  0  0  0
    2.3864    1.1520   -0.7671 H   0  0  0  0  0  0  0  0  0  0  0  0
    3.1595    2.1204    0.5073 H   0  0  0  0  0  0  0  0  0  0  0  0
    2.0320    0.2519    1.5593 H   0  0  0  0  0  0  0  0  0  0  0  0
    3.7574   -1.5855   -0.1842 H   0  0  0  0  0  0  0  0  0  0  0  0
    3.5182   -2.5261    2.1270 H   0  0  0  0  0  0  0  0  0  0  0  0
    2.6667   -3.4741    0.8886 H   0  0  0  0  0  0  0  0  0  0  0  0
    0.9387   -1.5375   -0.0330 H   0  0  0  0  0  0  0  0  0  0  0  0
    4.8533    0.1851    1.5161 H   0  0  0  0  0  0  0  0  0  0  0  0
  1  2  1  0  0  0  0
  2  3  1  0  0  0  0
  2  9  1  0  0  0  0
  2 10  1  0  0  0  0
  3  8  1  0  0  0  0
  3  4  1  0  0  0  0
  3 11  1  0  0  0  0
  4  7  1  0  0  0  0
  4  5  1  0  0  0  0
  4 12  1  0  0  0  0
  5  6  1  0  0  0  0
  5 13  1  0  0  0  0
  5 14  1  0  0  0  0
  7 15  1  0  0  0  0
  8 16  1  0  0  0  0
M  END
$$$$