918870 918869
 OpenBabel01161410143D

 15 15  0  0  0  0  0  0  0  0999 V2000
    1.0587   -0.0388    0.0648 O   0  0  0  0  0  0  0  0  0  0  0  0
    2.4153   -0.0093   -0.0731 C   0  0  0  0  0  0  0  0  0  0  0  0
    3.1080    1.1942   -0.1492 C   0  0  0  0  0  0  0  0  0  0  0  0
    4.4960    1.1769   -0.2925 C   0  0  0  0  0  0  0  0  0  0  0  0
    5.1731   -0.0440   -0.3583 C   0  0  0  0  0  0  0  0  0  0  0  0
    4.4759   -1.2595   -0.2805 C   0  0  0  0  0  0  0  0  0  0  0  0
    3.0842   -1.2291   -0.1346 C   0  0  0  0  0  0  0  0  0  0  0  0
    5.3222   -2.8325   -0.3483 S   0  0  0  0  0  0  0  0  0  0  0  0
    6.5350   -0.0475   -0.5023 O   0  0  0  0  0  0  0  0  0  0  0  0
    0.7241    0.8729    0.0856 H   0  0  0  0  0  0  0  0  0  0  0  0
    2.5897    2.1467   -0.0983 H   0  0  0  0  0  0  0  0  0  0  0  0
    5.0329    2.1189   -0.3501 H   0  0  0  0  0  0  0  0  0  0  0  0
    2.5068   -2.1464   -0.0660 H   0  0  0  0  0  0  0  0  0  0  0  0
    4.2359   -3.6074   -0.4752 H   0  0  0  0  0  0  0  0  0  0  0  0
    6.8582    0.8656   -0.5495 H   0  0  0  0  0  0  0  0  0  0  0  0
  1  2  1  0  0  0  0
  1 10  1  0  0  0  0
  2  3  2  0  0  0  0
  2  7  1  0  0  0  0
  3  4  1  0  0  0  0
  3 11  1  0  0  0  0
  4  5  2  0  0  0  0
  4 12  1  0  0  0  0
  5  6  1  0  0  0  0
  5  9  1  0  0  0  0
  6  7  2  0  0  0  0
  6  8  1  0  0  0  0
  7 13  1  0  0  0  0
  8 14  1  0  0  0  0
  9 15  1  0  0  0  0
M  END
$$$$