516663 516662
 OpenBabel01161410103D

 42 45  0  0  1  0  0  0  0  0999 V2000
   -1.6906    0.1572    0.0479 C   0  0  0  0  0  0  0  0  0  0  0  0
   -0.9063    1.3036    0.0986 C   0  0  0  0  0  0  0  0  0  0  0  0
    0.4740    1.2171   -0.1040 C   0  0  0  0  0  0  0  0  0  0  0  0
    1.1098   -0.0189   -0.3776 C   0  0  0  0  0  0  0  0  0  0  0  0
    0.2836   -1.1615   -0.4184 C   0  0  0  0  0  0  0  0  0  0  0  0
   -1.0963   -1.0736   -0.2062 C   0  0  0  0  0  0  0  0  0  0  0  0
    2.6831   -0.0848   -0.5806 C   0  0  3  0  0  0  0  0  0  0  0  0
    3.0441    0.6046   -1.8762 N   0  0  0  0  0  0  0  0  0  0  0  0
    4.2591    0.4997   -2.5298 C   0  0  0  0  0  0  0  0  0  0  0  0
    4.3025    1.2029   -3.6370 N   0  0  0  0  0  0  0  0  0  0  0  0
    3.0601    1.7486   -3.7574 C   0  0  0  0  0  0  0  0  0  0  0  0
    2.2582    1.3742   -2.7077 C   0  0  0  0  0  0  0  0  0  0  0  0
    3.4080    0.6530    0.6293 C   0  0  0  0  0  0  0  0  0  0  0  0
    2.8252    0.6595    1.9217 C   0  0  0  0  0  0  0  0  0  0  0  0
    3.4340    1.2947    3.0102 C   0  0  0  0  0  0  0  0  0  0  0  0
    4.6622    1.9213    2.8525 C   0  0  0  0  0  0  0  0  0  0  0  0
    5.2815    1.9053    1.6100 C   0  0  0  0  0  0  0  0  0  0  0  0
    4.6662    1.2790    0.5178 C   0  0  0  0  0  0  0  0  0  0  0  0
    3.1483   -1.5932   -0.6747 C   0  0  0  0  0  0  0  0  0  0  0  0
    3.0888   -2.3013   -1.9010 C   0  0  0  0  0  0  0  0  0  0  0  0
    3.4281   -3.6538   -1.9861 C   0  0  0  0  0  0  0  0  0  0  0  0
    3.8008   -4.3491   -0.8430 C   0  0  0  0  0  0  0  0  0  0  0  0
    3.8385   -3.6920    0.3824 C   0  0  0  0  0  0  0  0  0  0  0  0
    3.5186   -2.3321    0.4671 C   0  0  0  0  0  0  0  0  0  0  0  0
   -2.7635    0.2212    0.2086 H   0  0  0  0  0  0  0  0  0  0  0  0
   -1.3664    2.2681    0.2982 H   0  0  0  0  0  0  0  0  0  0  0  0
    1.0588    2.1354   -0.0485 H   0  0  0  0  0  0  0  0  0  0  0  0
    0.6847   -2.1550   -0.6023 H   0  0  0  0  0  0  0  0  0  0  0  0
   -1.7050   -1.9745   -0.2388 H   0  0  0  0  0  0  0  0  0  0  0  0
    5.0744   -0.1063   -2.1529 H   0  0  0  0  0  0  0  0  0  0  0  0
    2.7948    2.3695   -4.6035 H   0  0  0  0  0  0  0  0  0  0  0  0
    1.2186    1.5948   -2.5194 H   0  0  0  0  0  0  0  0  0  0  0  0
    1.8739    0.1624    2.1086 H   0  0  0  0  0  0  0  0  0  0  0  0
    2.9456    1.2947    3.9813 H   0  0  0  0  0  0  0  0  0  0  0  0
    5.1399    2.4150    3.6943 H   0  0  0  0  0  0  0  0  0  0  0  0
    6.2503    2.3826    1.4806 H   0  0  0  0  0  0  0  0  0  0  0  0
    5.2203    1.3128   -0.4131 H   0  0  0  0  0  0  0  0  0  0  0  0
    2.7583   -1.8117   -2.8172 H   0  0  0  0  0  0  0  0  0  0  0  0
    3.3866   -4.1631   -2.9459 H   0  0  0  0  0  0  0  0  0  0  0  0
    4.0507   -5.4052   -0.9051 H   0  0  0  0  0  0  0  0  0  0  0  0
    4.1095   -4.2401    1.2813 H   0  0  0  0  0  0  0  0  0  0  0  0
    3.5463   -1.8769    1.4536 H   0  0  0  0  0  0  0  0  0  0  0  0
  1  2  2  0  0  0  0
  1  6  1  0  0  0  0
  1 25  1  0  0  0  0
  2  3  1  0  0  0  0
  2 26  1  0  0  0  0
  3  4  2  0  0  0  0
  3 27  1  0  0  0  0
  4  5  1  0  0  0  0
  4  7  1  0  0  0  0
  5  6  2  0  0  0  0
  5 28  1  0  0  0  0
  6 29  1  0  0  0  0
  7 19  1  0  0  0  0
  7 13  1  0  0  0  0
  7  8  1  0  0  0  0
  8  9  1  0  0  0  0
  8 12  1  0  0  0  0
  9 10  2  0  0  0  0
  9 30  1  0  0  0  0
 10 11  1  0  0  0  0
 11 12  2  0  0  0  0
 11 31  1  0  0  0  0
 12 32  1  0  0  0  0
 13 14  2  0  0  0  0
 13 18  1  0  0  0  0
 14 15  1  0  0  0  0
 14 33  1  0  0  0  0
 15 16  2  0  0  0  0
 15 34  1  0  0  0  0
 16 17  1  0  0  0  0
 16 35  1  0  0  0  0
 17 18  2  0  0  0  0
 17 36  1  0  0  0  0
 18 37  1  0  0  0  0
 19 20  2  0  0  0  0
 19 24  1  0  0  0  0
 20 21  1  0  0  0  0
 20 38  1  0  0  0  0
 21 22  2  0  0  0  0
 21 39  1  0  0  0  0
 22 23  1  0  0  0  0
 22 40  1  0  0  0  0
 23 24  2  0  0  0  0
 23 41  1  0  0  0  0
 24 42  1  0  0  0  0
M  END
$$$$