882624 882623
 OpenBabel01161410213D

 12 11  0  0  0  0  0  0  0  0999 V2000
    0.8926   -0.0778   -0.2483 P   0  0  0  0  0  0  0  0  0  0  0  0
    2.7385   -0.0277   -0.0976 C   0  0  0  0  0  0  0  0  0  0  0  0
    3.3071   -1.3782    0.3299 C   0  0  0  0  0  0  0  0  0  0  0  0
    5.1529   -1.3282    0.4806 P   0  0  0  0  0  0  0  0  0  0  0  0
    0.6883    1.3162   -0.3821 H   0  0  0  0  0  0  0  0  0  0  0  0
    0.6009   -0.1238    1.1359 H   0  0  0  0  0  0  0  0  0  0  0  0
    3.0038    0.7508    0.6270 H   0  0  0  0  0  0  0  0  0  0  0  0
    3.1517    0.2753   -1.0665 H   0  0  0  0  0  0  0  0  0  0  0  0
    3.0418   -2.1567   -0.3947 H   0  0  0  0  0  0  0  0  0  0  0  0
    2.8939   -1.6812    1.2989 H   0  0  0  0  0  0  0  0  0  0  0  0
    5.4447   -1.2821   -0.9036 H   0  0  0  0  0  0  0  0  0  0  0  0
    5.3572   -2.7222    0.6144 H   0  0  0  0  0  0  0  0  0  0  0  0
  1  2  1  0  0  0  0
  1  5  1  0  0  0  0
  1  6  1  0  0  0  0
  2  3  1  0  0  0  0
  2  7  1  0  0  0  0
  2  8  1  0  0  0  0
  3  4  1  0  0  0  0
  3  9  1  0  0  0  0
  3 10  1  0  0  0  0
  4 11  1  0  0  0  0
  4 12  1  0  0  0  0
M  END
$$$$