24317311 24317310
 OpenBabel01161410533D

 24 25  0  0  1  0  0  0  0  0999 V2000
    0.6378    5.0073   -1.6663 Cl  0  0  0  0  0  0  0  0  0  0  0  0
    1.3093    3.6246   -0.8078 C   0  0  0  0  0  0  0  0  0  0  0  0
    0.7164    3.4701    0.8378 Cl  0  0  0  0  0  0  0  0  0  0  0  0
    1.5471    2.3626   -1.5921 C   0  0  0  0  0  0  0  0  0  0  0  0
    2.7185    3.2071   -1.1547 C   0  0  3  0  0  0  0  0  0  0  0  0
    3.6633    2.7250   -0.0985 C   0  0  0  0  0  0  0  0  0  0  0  0
    5.1490    2.0641   -0.9194 S   0  0  0  0  0  0  0  0  0  0  0  0
    6.4029    1.7011    0.6706 S   0  0  0  0  0  0  0  0  0  0  0  0
    5.9988   -0.0226    1.0964 C   0  0  0  0  0  0  0  0  0  0  0  0
    6.9354   -0.4712    2.1755 C   0  0  3  0  0  0  0  0  0  0  0  0
    6.5195   -0.4419    3.6244 C   0  0  0  0  0  0  0  0  0  0  0  0
    6.7053   -1.7603    2.9239 C   0  0  0  0  0  0  0  0  0  0  0  0
    5.2769   -2.7310    2.6060 Cl  0  0  0  0  0  0  0  0  0  0  0  0
    8.1208   -2.7185    3.3480 Cl  0  0  0  0  0  0  0  0  0  0  0  0
    1.2951    2.3571   -2.6473 H   0  0  0  0  0  0  0  0  0  0  0  0
    1.3719    1.4133   -1.1013 H   0  0  0  0  0  0  0  0  0  0  0  0
    3.2173    3.8170   -1.9008 H   0  0  0  0  0  0  0  0  0  0  0  0
    3.2217    1.9365    0.5185 H   0  0  0  0  0  0  0  0  0  0  0  0
    3.9500    3.5663    0.5401 H   0  0  0  0  0  0  0  0  0  0  0  0
    6.1372   -0.6533    0.2133 H   0  0  0  0  0  0  0  0  0  0  0  0
    4.9534   -0.0710    1.4157 H   0  0  0  0  0  0  0  0  0  0  0  0
    7.9703   -0.2444    1.9344 H   0  0  0  0  0  0  0  0  0  0  0  0
    5.5119   -0.1313    3.8744 H   0  0  0  0  0  0  0  0  0  0  0  0
    7.2596   -0.1383    4.3564 H   0  0  0  0  0  0  0  0  0  0  0  0
  1  2  1  0  0  0  0
  2  5  1  0  0  0  0
  2  4  1  0  0  0  0
  2  3  1  0  0  0  0
  4  5  1  0  0  0  0
  4 15  1  0  0  0  0
  4 16  1  0  0  0  0
  5  6  1  0  0  0  0
  5 17  1  0  0  0  0
  6  7  1  0  0  0  0
  6 18  1  0  0  0  0
  6 19  1  0  0  0  0
  7  8  1  0  0  0  0
  8  9  1  0  0  0  0
  9 10  1  0  0  0  0
  9 20  1  0  0  0  0
  9 21  1  0  0  0  0
 10 12  1  0  0  0  0
 10 11  1  0  0  0  0
 10 22  1  0  0  0  0
 11 12  1  0  0  0  0
 11 23  1  0  0  0  0
 11 24  1  0  0  0  0
 12 14  1  0  0  0  0
 12 13  1  0  0  0  0
M  END
$$$$