31409843 31409842
 OpenBabel01161410593D

 28 29  0  0  0  0  0  0  0  0999 V2000
    1.6115    1.1992    0.8891 N   0  0  0  0  0  0  0  0  0  0  0  0
    2.7161    0.8586    0.0965 C   0  0  0  0  0  0  0  0  0  0  0  0
    3.4147    1.8469   -0.5983 C   0  0  0  0  0  0  0  0  0  0  0  0
    4.5879    1.5373   -1.2888 C   0  0  0  0  0  0  0  0  0  0  0  0
    5.0951    0.2387   -1.2582 C   0  0  0  0  0  0  0  0  0  0  0  0
    4.4391   -0.7599   -0.5274 C   0  0  0  0  0  0  0  0  0  0  0  0
    3.2698   -0.4228    0.1758 C   0  0  0  0  0  0  0  0  0  0  0  0
    5.0294   -2.1453   -0.4378 C   0  0  0  0  0  0  0  0  0  0  0  0
    3.9880   -3.1158   -0.3602 O   0  0  0  0  0  0  0  0  0  0  0  0
    4.5118   -4.4394   -0.2812 C   0  0  0  0  0  0  0  0  0  0  0  0
    3.3643   -5.3704   -0.1498 C   0  0  0  0  0  0  0  0  0  0  0  0
    1.9952   -5.2075   -0.0773 C   0  0  0  0  0  0  0  0  0  0  0  0
    1.4407   -6.5031    0.0446 C   0  0  0  0  0  0  0  0  0  0  0  0
    2.5031   -7.3751    0.0385 C   0  0  0  0  0  0  0  0  0  0  0  0
    3.6748   -6.6987   -0.0783 O   0  0  0  0  0  0  0  0  0  0  0  0
    1.0932    1.9966    0.5347 H   0  0  0  0  0  0  0  0  0  0  0  0
    1.0054    0.4085    1.0869 H   0  0  0  0  0  0  0  0  0  0  0  0
    3.0500    2.8702   -0.6074 H   0  0  0  0  0  0  0  0  0  0  0  0
    5.1130    2.3140   -1.8380 H   0  0  0  0  0  0  0  0  0  0  0  0
    6.0146    0.0167   -1.7946 H   0  0  0  0  0  0  0  0  0  0  0  0
    2.7810   -1.1806    0.7846 H   0  0  0  0  0  0  0  0  0  0  0  0
    5.6636   -2.2039    0.4544 H   0  0  0  0  0  0  0  0  0  0  0  0
    5.6371   -2.3499   -1.3271 H   0  0  0  0  0  0  0  0  0  0  0  0
    5.1670   -4.5313    0.5921 H   0  0  0  0  0  0  0  0  0  0  0  0
    5.0778   -4.6686   -1.1907 H   0  0  0  0  0  0  0  0  0  0  0  0
    1.4727   -4.2611   -0.1107 H   0  0  0  0  0  0  0  0  0  0  0  0
    0.3964   -6.7688    0.1262 H   0  0  0  0  0  0  0  0  0  0  0  0
    2.5895   -8.4505    0.1052 H   0  0  0  0  0  0  0  0  0  0  0  0
  1  2  1  0  0  0  0
  1 16  1  0  0  0  0
  1 17  1  0  0  0  0
  2  3  2  0  0  0  0
  2  7  1  0  0  0  0
  3  4  1  0  0  0  0
  3 18  1  0  0  0  0
  4  5  2  0  0  0  0
  4 19  1  0  0  0  0
  5  6  1  0  0  0  0
  5 20  1  0  0  0  0
  6  7  2  0  0  0  0
  6  8  1  0  0  0  0
  7 21  1  0  0  0  0
  8  9  1  0  0  0  0
  8 22  1  0  0  0  0
  8 23  1  0  0  0  0
  9 10  1  0  0  0  0
 10 11  1  0  0  0  0
 10 24  1  0  0  0  0
 10 25  1  0  0  0  0
 11 12  2  0  0  0  0
 11 15  1  0  0  0  0
 12 13  1  0  0  0  0
 12 26  1  0  0  0  0
 13 14  2  0  0  0  0
 13 27  1  0  0  0  0
 14 15  1  0  0  0  0
 14 28  1  0  0  0  0
M  END
$$$$