43011885 43011884
 OpenBabel01161410063D

 25 26  0  0  0  0  0  0  0  0999 V2000
    3.8405    0.3196    8.4562 O   0  0  0  0  0  0  0  0  0  0  0  0
    3.7802   -0.3020    7.1732 C   0  0  0  0  0  0  0  0  0  0  0  0
    4.5705    0.4556    6.1341 C   0  0  0  0  0  0  0  0  0  0  0  0
    5.7489    1.1132    6.4678 C   0  0  0  0  0  0  0  0  0  0  0  0
    6.4560    1.7678    5.4678 C   0  0  0  0  0  0  0  0  0  0  0  0
    5.9775    1.7366    4.1609 C   0  0  0  0  0  0  0  0  0  0  0  0
    4.8012    1.0435    3.8799 C   0  0  0  0  0  0  0  0  0  0  0  0
    4.1034    0.4089    4.8591 N   0  0  0  0  0  0  0  0  0  0  0  0
    4.2245    0.9539    2.5205 C   0  0  0  0  0  0  0  0  0  0  0  0
    5.0244    0.9648    1.3622 C   0  0  0  0  0  0  0  0  0  0  0  0
    4.4592    0.8843    0.0843 C   0  0  0  0  0  0  0  0  0  0  0  0
    3.0793    0.7859   -0.0644 C   0  0  0  0  0  0  0  0  0  0  0  0
    2.2642    0.7629    1.0623 C   0  0  0  0  0  0  0  0  0  0  0  0
    2.8325    0.8435    2.3378 C   0  0  0  0  0  0  0  0  0  0  0  0
    3.2053   -0.1559    9.0173 H   0  0  0  0  0  0  0  0  0  0  0  0
    2.7289   -0.3561    6.8707 H   0  0  0  0  0  0  0  0  0  0  0  0
    4.1782   -1.3181    7.2606 H   0  0  0  0  0  0  0  0  0  0  0  0
    6.1036    1.1265    7.4939 H   0  0  0  0  0  0  0  0  0  0  0  0
    7.3705    2.3039    5.7055 H   0  0  0  0  0  0  0  0  0  0  0  0
    6.5185    2.2661    3.3844 H   0  0  0  0  0  0  0  0  0  0  0  0
    6.1076    1.0172    1.4390 H   0  0  0  0  0  0  0  0  0  0  0  0
    5.1006    0.8921   -0.7931 H   0  0  0  0  0  0  0  0  0  0  0  0
    2.6399    0.7211   -1.0558 H   0  0  0  0  0  0  0  0  0  0  0  0
    1.1860    0.6802    0.9561 H   0  0  0  0  0  0  0  0  0  0  0  0
    2.1755    0.8231    3.2067 H   0  0  0  0  0  0  0  0  0  0  0  0
  1  2  1  0  0  0  0
  1 15  1  0  0  0  0
  2  3  1  0  0  0  0
  2 16  1  0  0  0  0
  2 17  1  0  0  0  0
  3  8  1  0  0  0  0
  3  4  2  0  0  0  0
  4  5  1  0  0  0  0
  4 18  1  0  0  0  0
  5  6  2  0  0  0  0
  5 19  1  0  0  0  0
  6  7  1  0  0  0  0
  6 20  1  0  0  0  0
  7  8  2  0  0  0  0
  7  9  1  0  0  0  0
  9 10  2  0  0  0  0
  9 14  1  0  0  0  0
 10 11  1  0  0  0  0
 10 21  1  0  0  0  0
 11 12  2  0  0  0  0
 11 22  1  0  0  0  0
 12 13  1  0  0  0  0
 12 23  1  0  0  0  0
 13 14  2  0  0  0  0
 13 24  1  0  0  0  0
 14 25  1  0  0  0  0
M  END
$$$$