44684107 44684106
 OpenBabel01161410063D

 41 41  0  0  0  0  0  0  0  0999 V2000
    5.7299    2.6487    0.1212 C   0  0  0  0  0  0  0  0  0  0  0  0
    4.5477    1.9990   -0.5774 C   0  0  0  0  0  0  0  0  0  0  0  0
    4.4878    0.5904   -0.3562 O   0  0  0  0  0  0  0  0  0  0  0  0
    5.4359   -0.1634   -1.1155 C   0  0  0  0  0  0  0  0  0  0  0  0
    5.4260   -1.6580   -0.6536 C   0  0  0  0  0  0  0  0  0  0  0  0
    6.4313   -2.4612   -1.5041 C   0  0  0  0  0  0  0  0  0  0  0  0
    6.4985   -3.9765   -1.3082 C   0  0  0  0  0  0  0  0  0  0  0  0
    5.1440   -4.6816   -1.2598 C   0  0  0  0  0  0  0  0  0  0  0  0
    4.6889   -5.0842    0.1437 C   0  0  0  0  0  0  0  0  0  0  0  0
    4.3442   -3.9472    1.1078 C   0  0  0  0  0  0  0  0  0  0  0  0
    5.5421   -3.1049    1.5496 C   0  0  0  0  0  0  0  0  0  0  0  0
    5.6823   -1.7404    0.8656 C   0  0  0  0  0  0  0  0  0  0  0  0
    5.2255   -0.0187   -2.5240 O   0  0  0  0  0  0  0  0  0  0  0  0
    3.9331   -0.4131   -2.9780 C   0  0  0  0  0  0  0  0  0  0  0  0
    3.8452   -0.1048   -4.4603 C   0  0  0  0  0  0  0  0  0  0  0  0
    5.6645    3.7386    0.0501 H   0  0  0  0  0  0  0  0  0  0  0  0
    6.6797    2.3389   -0.3281 H   0  0  0  0  0  0  0  0  0  0  0  0
    5.7617    2.3624    1.1761 H   0  0  0  0  0  0  0  0  0  0  0  0
    4.5464    2.2316   -1.6469 H   0  0  0  0  0  0  0  0  0  0  0  0
    3.6256    2.4172   -0.1595 H   0  0  0  0  0  0  0  0  0  0  0  0
    6.4392    0.2276   -0.9132 H   0  0  0  0  0  0  0  0  0  0  0  0
    4.4171   -2.0373   -0.8382 H   0  0  0  0  0  0  0  0  0  0  0  0
    7.4395   -2.0521   -1.3557 H   0  0  0  0  0  0  0  0  0  0  0  0
    6.2013   -2.2980   -2.5648 H   0  0  0  0  0  0  0  0  0  0  0  0
    7.0544   -4.3764   -2.1675 H   0  0  0  0  0  0  0  0  0  0  0  0
    7.1160   -4.2317   -0.4426 H   0  0  0  0  0  0  0  0  0  0  0  0
    4.3670   -4.0997   -1.7672 H   0  0  0  0  0  0  0  0  0  0  0  0
    5.2376   -5.6121   -1.8363 H   0  0  0  0  0  0  0  0  0  0  0  0
    3.7927   -5.7085    0.0333 H   0  0  0  0  0  0  0  0  0  0  0  0
    5.4491   -5.7309    0.6004 H   0  0  0  0  0  0  0  0  0  0  0  0
    3.5367   -3.3268    0.7053 H   0  0  0  0  0  0  0  0  0  0  0  0
    3.9270   -4.4204    2.0071 H   0  0  0  0  0  0  0  0  0  0  0  0
    5.4291   -2.9028    2.6240 H   0  0  0  0  0  0  0  0  0  0  0  0
    6.4741   -3.6729    1.4785 H   0  0  0  0  0  0  0  0  0  0  0  0
    4.9784   -1.0698    1.3732 H   0  0  0  0  0  0  0  0  0  0  0  0
    6.6817   -1.3438    1.0896 H   0  0  0  0  0  0  0  0  0  0  0  0
    3.1515    0.1362   -2.4437 H   0  0  0  0  0  0  0  0  0  0  0  0
    3.7835   -1.4864   -2.8308 H   0  0  0  0  0  0  0  0  0  0  0  0
    4.0057    0.9632   -4.6423 H   0  0  0  0  0  0  0  0  0  0  0  0
    2.8682   -0.3889   -4.8603 H   0  0  0  0  0  0  0  0  0  0  0  0
    4.6232   -0.6433   -5.0111 H   0  0  0  0  0  0  0  0  0  0  0  0
  1  2  1  0  0  0  0
  1 16  1  0  0  0  0
  1 17  1  0  0  0  0
  1 18  1  0  0  0  0
  2  3  1  0  0  0  0
  2 19  1  0  0  0  0
  2 20  1  0  0  0  0
  3  4  1  0  0  0  0
  4 13  1  0  0  0  0
  4  5  1  0  0  0  0
  4 21  1  0  0  0  0
  5 12  1  0  0  0  0
  5  6  1  0  0  0  0
  5 22  1  0  0  0  0
  6  7  1  0  0  0  0
  6 23  1  0  0  0  0
  6 24  1  0  0  0  0
  7  8  1  0  0  0  0
  7 25  1  0  0  0  0
  7 26  1  0  0  0  0
  8  9  1  0  0  0  0
  8 27  1  0  0  0  0
  8 28  1  0  0  0  0
  9 10  1  0  0  0  0
  9 29  1  0  0  0  0
  9 30  1  0  0  0  0
 10 11  1  0  0  0  0
 10 31  1  0  0  0  0
 10 32  1  0  0  0  0
 11 12  1  0  0  0  0
 11 33  1  0  0  0  0
 11 34  1  0  0  0  0
 12 35  1  0  0  0  0
 12 36  1  0  0  0  0
 13 14  1  0  0  0  0
 14 15  1  0  0  0  0
 14 37  1  0  0  0  0
 14 38  1  0  0  0  0
 15 39  1  0  0  0  0
 15 40  1  0  0  0  0
 15 41  1  0  0  0  0
M  END
$$$$