46110707 46110706
 OpenBabel01161410213D

 25 25  0  0  0  0  0  0  0  0999 V2000
    1.6591   -1.3203   -2.9944 C   0  0  0  0  0  0  0  0  0  0  0  0
    2.0851   -2.7634   -2.7973 C   0  0  0  0  0  0  0  0  0  0  0  0
    3.4280   -2.9392   -1.5762 S   0  0  0  0  0  0  0  0  0  0  0  0
    4.8096   -2.1415   -2.4581 C   0  0  0  0  0  0  0  0  0  0  0  0
    5.1486   -2.7720   -3.7853 C   0  0  0  0  0  0  0  0  0  0  0  0
    5.0581   -2.0270   -4.9688 C   0  0  0  0  0  0  0  0  0  0  0  0
    5.3814   -2.6033   -6.1999 C   0  0  0  0  0  0  0  0  0  0  0  0
    5.7984   -3.9370   -6.2725 C   0  0  0  0  0  0  0  0  0  0  0  0
    5.9064   -4.6788   -5.0924 C   0  0  0  0  0  0  0  0  0  0  0  0
    5.5857   -4.1022   -3.8609 C   0  0  0  0  0  0  0  0  0  0  0  0
    6.1638   -4.5392   -7.5966 C   0  0  0  0  0  0  0  0  0  0  0  0
    0.8020   -1.2785   -3.6754 H   0  0  0  0  0  0  0  0  0  0  0  0
    2.4537   -0.7126   -3.4368 H   0  0  0  0  0  0  0  0  0  0  0  0
    1.3520   -0.8594   -2.0494 H   0  0  0  0  0  0  0  0  0  0  0  0
    2.3728   -3.2211   -3.7477 H   0  0  0  0  0  0  0  0  0  0  0  0
    1.2326   -3.3356   -2.4174 H   0  0  0  0  0  0  0  0  0  0  0  0
    5.6946   -2.1976   -1.8134 H   0  0  0  0  0  0  0  0  0  0  0  0
    4.5878   -1.0751   -2.5703 H   0  0  0  0  0  0  0  0  0  0  0  0
    4.7367   -0.9880   -4.9434 H   0  0  0  0  0  0  0  0  0  0  0  0
    5.3070   -2.0037   -7.1045 H   0  0  0  0  0  0  0  0  0  0  0  0
    6.2407   -5.7136   -5.1205 H   0  0  0  0  0  0  0  0  0  0  0  0
    5.6752   -4.7015   -2.9566 H   0  0  0  0  0  0  0  0  0  0  0  0
    6.2525   -5.6285   -7.5290 H   0  0  0  0  0  0  0  0  0  0  0  0
    7.1213   -4.1361   -7.9403 H   0  0  0  0  0  0  0  0  0  0  0  0
    5.3925   -4.3185   -8.3419 H   0  0  0  0  0  0  0  0  0  0  0  0
  1  2  1  0  0  0  0
  1 12  1  0  0  0  0
  1 13  1  0  0  0  0
  1 14  1  0  0  0  0
  2  3  1  0  0  0  0
  2 15  1  0  0  0  0
  2 16  1  0  0  0  0
  3  4  1  0  0  0  0
  4  5  1  0  0  0  0
  4 17  1  0  0  0  0
  4 18  1  0  0  0  0
  5  6  2  0  0  0  0
  5 10  1  0  0  0  0
  6  7  1  0  0  0  0
  6 19  1  0  0  0  0
  7  8  2  0  0  0  0
  7 20  1  0  0  0  0
  8  9  1  0  0  0  0
  8 11  1  0  0  0  0
  9 10  2  0  0  0  0
  9 21  1  0  0  0  0
 10 22  1  0  0  0  0
 11 23  1  0  0  0  0
 11 24  1  0  0  0  0
 11 25  1  0  0  0  0
M  END
$$$$