33508422 33508421
 OpenBabel01161410143D

 24 25  0  0  1  0  0  0  0  0999 V2000
    2.7374    1.6149   -0.3861 N   0  0  0  0  0  0  0  0  0  0  0  0
    2.6330    0.1787   -0.1786 C   0  0  0  0  0  0  0  0  0  0  0  0
    2.8940   -0.1001    1.2633 C   0  0  3  0  0  0  0  0  0  0  0  0
    3.5697   -1.3755    1.6873 C   0  0  0  0  0  0  0  0  0  0  0  0
    4.3069   -0.0621    1.8203 C   0  0  3  0  0  0  0  0  0  0  0  0
    4.5419    0.5523    3.1798 C   0  0  0  0  0  0  0  0  0  0  0  0
    4.1562    1.8756    3.4530 C   0  0  0  0  0  0  0  0  0  0  0  0
    4.3766    2.4567    4.7044 C   0  0  0  0  0  0  0  0  0  0  0  0
    4.9953    1.7221    5.7118 C   0  0  0  0  0  0  0  0  0  0  0  0
    5.3956    0.4119    5.4652 C   0  0  0  0  0  0  0  0  0  0  0  0
    5.1735   -0.1626    4.2102 C   0  0  0  0  0  0  0  0  0  0  0  0
    2.5767    1.8222   -1.3701 H   0  0  0  0  0  0  0  0  0  0  0  0
    3.6926    1.9097   -0.1875 H   0  0  0  0  0  0  0  0  0  0  0  0
    3.3435   -0.3427   -0.8287 H   0  0  0  0  0  0  0  0  0  0  0  0
    1.6253   -0.1592   -0.4418 H   0  0  0  0  0  0  0  0  0  0  0  0
    2.0821    0.2572    1.8896 H   0  0  0  0  0  0  0  0  0  0  0  0
    3.9110   -2.0661    0.9245 H   0  0  0  0  0  0  0  0  0  0  0  0
    3.2014   -1.8622    2.5836 H   0  0  0  0  0  0  0  0  0  0  0  0
    5.1099    0.1011    1.1040 H   0  0  0  0  0  0  0  0  0  0  0  0
    3.6675    2.4609    2.6759 H   0  0  0  0  0  0  0  0  0  0  0  0
    4.0619    3.4802    4.8893 H   0  0  0  0  0  0  0  0  0  0  0  0
    5.1651    2.1701    6.6868 H   0  0  0  0  0  0  0  0  0  0  0  0
    5.8807   -0.1664    6.2477 H   0  0  0  0  0  0  0  0  0  0  0  0
    5.4946   -1.1862    4.0332 H   0  0  0  0  0  0  0  0  0  0  0  0
  1  2  1  0  0  0  0
  1 12  1  0  0  0  0
  1 13  1  0  0  0  0
  2  3  1  0  0  0  0
  2 14  1  0  0  0  0
  2 15  1  0  0  0  0
  3  5  1  0  0  0  0
  3  4  1  0  0  0  0
  3 16  1  0  0  0  0
  4  5  1  0  0  0  0
  4 17  1  0  0  0  0
  4 18  1  0  0  0  0
  5  6  1  0  0  0  0
  5 19  1  0  0  0  0
  6  7  2  0  0  0  0
  6 11  1  0  0  0  0
  7  8  1  0  0  0  0
  7 20  1  0  0  0  0
  8  9  2  0  0  0  0
  8 21  1  0  0  0  0
  9 10  1  0  0  0  0
  9 22  1  0  0  0  0
 10 11  2  0  0  0  0
 10 23  1  0  0  0  0
 11 24  1  0  0  0  0
M  END
$$$$