888880 888879
 OpenBabel01161410433D

 34 36  0  0  0  0  0  0  0  0999 V2000
    1.7970  -11.2598   -5.7882 Cl  0  0  0  0  0  0  0  0  0  0  0  0
    1.7500  -11.4989   -4.0843 C   0  0  0  0  0  0  0  0  0  0  0  0
    0.7614  -12.3041   -3.5265 C   0  0  0  0  0  0  0  0  0  0  0  0
    0.7327  -12.5019   -2.1479 C   0  0  0  0  0  0  0  0  0  0  0  0
    1.6969  -11.8994   -1.3348 C   0  0  0  0  0  0  0  0  0  0  0  0
    2.7040  -11.0904   -1.8869 C   0  0  0  0  0  0  0  0  0  0  0  0
    2.7116  -10.8918   -3.2761 C   0  0  0  0  0  0  0  0  0  0  0  0
    3.9530  -10.3691   -0.7642 P   0  0  3  0  0  0  0  0  0  0  0  0
    5.5461  -10.8861   -1.4929 C   0  0  0  0  0  0  0  0  0  0  0  0
    6.7122  -10.1357   -1.2558 C   0  0  0  0  0  0  0  0  0  0  0  0
    7.9416  -10.5107   -1.8070 C   0  0  0  0  0  0  0  0  0  0  0  0
    8.0341  -11.6624   -2.5832 C   0  0  0  0  0  0  0  0  0  0  0  0
    6.9018  -12.4442   -2.7846 C   0  0  0  0  0  0  0  0  0  0  0  0
    5.6737  -12.0722   -2.2346 C   0  0  0  0  0  0  0  0  0  0  0  0
    7.0149  -13.8841   -3.7213 Cl  0  0  0  0  0  0  0  0  0  0  0  0
    3.7771   -8.5975   -1.1882 C   0  0  0  0  0  0  0  0  0  0  0  0
    4.4285   -7.9677   -2.2607 C   0  0  0  0  0  0  0  0  0  0  0  0
    4.2356   -6.6082   -2.5270 C   0  0  0  0  0  0  0  0  0  0  0  0
    3.3787   -5.8554   -1.7289 C   0  0  0  0  0  0  0  0  0  0  0  0
    2.7182   -6.4662   -0.6679 C   0  0  0  0  0  0  0  0  0  0  0  0
    2.9128   -7.8218   -0.3953 C   0  0  0  0  0  0  0  0  0  0  0  0
    1.6488   -5.5428    0.3150 Cl  0  0  0  0  0  0  0  0  0  0  0  0
    0.0158  -12.7796   -4.1581 H   0  0  0  0  0  0  0  0  0  0  0  0
   -0.0370  -13.1288   -1.7044 H   0  0  0  0  0  0  0  0  0  0  0  0
    1.6553  -12.0751   -0.2609 H   0  0  0  0  0  0  0  0  0  0  0  0
    3.4767  -10.2791   -3.7440 H   0  0  0  0  0  0  0  0  0  0  0  0
    6.6757   -9.2373   -0.6406 H   0  0  0  0  0  0  0  0  0  0  0  0
    8.8254   -9.9034   -1.6266 H   0  0  0  0  0  0  0  0  0  0  0  0
    8.9886  -11.9513   -3.0145 H   0  0  0  0  0  0  0  0  0  0  0  0
    4.8191  -12.7250   -2.3958 H   0  0  0  0  0  0  0  0  0  0  0  0
    5.0926   -8.5240   -2.9184 H   0  0  0  0  0  0  0  0  0  0  0  0
    4.7516   -6.1412   -3.3625 H   0  0  0  0  0  0  0  0  0  0  0  0
    3.2270   -4.8007   -1.9413 H   0  0  0  0  0  0  0  0  0  0  0  0
    2.3795   -8.2729    0.4392 H   0  0  0  0  0  0  0  0  0  0  0  0
  1  2  1  0  0  0  0
  2  3  2  0  0  0  0
  2  7  1  0  0  0  0
  3  4  1  0  0  0  0
  3 23  1  0  0  0  0
  4  5  2  0  0  0  0
  4 24  1  0  0  0  0
  5  6  1  0  0  0  0
  5 25  1  0  0  0  0
  6  7  2  0  0  0  0
  6  8  1  0  0  0  0
  7 26  1  0  0  0  0
  8 16  1  0  0  0  0
  8  9  1  0  0  0  0
  9 10  2  0  0  0  0
  9 14  1  0  0  0  0
 10 11  1  0  0  0  0
 10 27  1  0  0  0  0
 11 12  2  0  0  0  0
 11 28  1  0  0  0  0
 12 13  1  0  0  0  0
 12 29  1  0  0  0  0
 13 14  2  0  0  0  0
 13 15  1  0  0  0  0
 14 30  1  0  0  0  0
 16 17  2  0  0  0  0
 16 21  1  0  0  0  0
 17 18  1  0  0  0  0
 17 31  1  0  0  0  0
 18 19  2  0  0  0  0
 18 32  1  0  0  0  0
 19 20  1  0  0  0  0
 19 33  1  0  0  0  0
 20 21  2  0  0  0  0
 20 22  1  0  0  0  0
 21 34  1  0  0  0  0
M  END
$$$$