28206871 28206870
 OpenBabel01161410553D

 20 19  0  0  0  0  0  0  0  0999 V2000
    4.3209    2.2250    1.9504 C   0  0  0  0  0  0  0  0  0  0  0  0
    4.3851    0.5086    1.3013 P   0  0  0  0  0  0  0  0  0  0  0  0
    3.3123    0.7067   -0.5044 S   0  0  0  0  0  0  0  0  0  0  0  0
    3.4372   -1.2214   -1.1895 S   0  0  0  0  0  0  0  0  0  0  0  0
    1.8025   -2.0721   -0.1593 P   0  0  0  0  0  0  0  0  0  0  0  0
    0.3529   -1.3253   -1.0022 C   0  0  0  0  0  0  0  0  0  0  0  0
    1.7446   -3.7538   -0.8945 C   0  0  0  0  0  0  0  0  0  0  0  0
    6.1289    0.4651    0.7308 C   0  0  0  0  0  0  0  0  0  0  0  0
    4.9431    2.3148    2.8454 H   0  0  0  0  0  0  0  0  0  0  0  0
    3.2959    2.4929    2.2262 H   0  0  0  0  0  0  0  0  0  0  0  0
    4.6774    2.9528    1.2156 H   0  0  0  0  0  0  0  0  0  0  0  0
    0.2637   -0.2634   -0.7584 H   0  0  0  0  0  0  0  0  0  0  0  0
   -0.5666   -1.8176   -0.6691 H   0  0  0  0  0  0  0  0  0  0  0  0
    0.4149   -1.4247   -2.0894 H   0  0  0  0  0  0  0  0  0  0  0  0
    2.6343   -4.3268   -0.6181 H   0  0  0  0  0  0  0  0  0  0  0  0
    1.6862   -3.7191   -1.9873 H   0  0  0  0  0  0  0  0  0  0  0  0
    0.8684   -4.2967   -0.5269 H   0  0  0  0  0  0  0  0  0  0  0  0
    6.8040    0.5006    1.5920 H   0  0  0  0  0  0  0  0  0  0  0  0
    6.3680    1.3101    0.0792 H   0  0  0  0  0  0  0  0  0  0  0  0
    6.3380   -0.4592    0.1851 H   0  0  0  0  0  0  0  0  0  0  0  0
  1  2  1  0  0  0  0
  1  9  1  0  0  0  0
  1 10  1  0  0  0  0
  1 11  1  0  0  0  0
  2  8  1  0  0  0  0
  2  3  1  0  0  0  0
  3  4  1  0  0  0  0
  4  5  1  0  0  0  0
  5  7  1  0  0  0  0
  5  6  1  0  0  0  0
  6 12  1  0  0  0  0
  6 13  1  0  0  0  0
  6 14  1  0  0  0  0
  7 15  1  0  0  0  0
  7 16  1  0  0  0  0
  7 17  1  0  0  0  0
  8 18  1  0  0  0  0
  8 19  1  0  0  0  0
  8 20  1  0  0  0  0
M  END
$$$$