42842247 42842246
 OpenBabel01161410223D

 42 43  0  0  1  0  0  0  0  0999 V2000
    5.1484    0.4117   -1.1142 C   0  0  0  0  0  0  0  0  0  0  0  0
    4.7411    0.3098    0.3506 C   0  0  0  0  0  0  0  0  0  0  0  0
    3.2153    0.3470    0.5586 C   0  0  3  0  0  0  0  0  0  0  0  0
    2.8717    0.0770    2.0083 C   0  0  0  0  0  0  0  0  0  0  0  0
    2.5711   -1.2169    2.4166 C   0  0  0  0  0  0  0  0  0  0  0  0
    2.2912   -1.5733    3.6889 N   0  0  0  0  0  0  0  0  0  0  0  0
    2.3083   -0.6066    4.6345 C   0  0  0  0  0  0  0  0  0  0  0  0
    2.5807    0.7335    4.3361 C   0  0  0  0  0  0  0  0  0  0  0  0
    2.8808    1.0589    3.0036 C   0  0  0  0  0  0  0  0  0  0  0  0
    2.5732    1.8163    5.3781 C   0  0  0  0  0  0  0  0  0  0  0  0
    1.9508   -1.1300    6.3073 S   0  0  0  0  0  0  0  0  0  0  0  0
    2.6140   -2.8518    6.2989 C   0  0  0  0  0  0  0  0  0  0  0  0
    4.1380   -2.8979    6.1002 C   0  0  0  0  0  0  0  0  0  0  0  0
    4.9255   -2.3829    7.3047 C   0  0  0  0  0  0  0  0  0  0  0  0
    4.5275   -3.1099    8.5847 C   0  0  0  0  0  0  0  0  0  0  0  0
    3.0227   -3.0532    8.8278 C   0  0  0  0  0  0  0  0  0  0  0  0
    2.2310   -3.5494    7.6156 C   0  0  0  0  0  0  0  0  0  0  0  0
    2.6458    1.6066    0.0732 N   0  0  0  0  0  0  0  0  0  0  0  0
    6.2341    0.3056   -1.2104 H   0  0  0  0  0  0  0  0  0  0  0  0
    4.8694    1.3790   -1.5428 H   0  0  0  0  0  0  0  0  0  0  0  0
    4.6784   -0.3788   -1.7081 H   0  0  0  0  0  0  0  0  0  0  0  0
    5.2278    1.1150    0.9154 H   0  0  0  0  0  0  0  0  0  0  0  0
    5.1406   -0.6315    0.7501 H   0  0  0  0  0  0  0  0  0  0  0  0
    2.7637   -0.4452   -0.0521 H   0  0  0  0  0  0  0  0  0  0  0  0
    2.5530   -2.0418    1.7081 H   0  0  0  0  0  0  0  0  0  0  0  0
    3.1246    2.0875    2.7509 H   0  0  0  0  0  0  0  0  0  0  0  0
    2.8045    2.7932    4.9405 H   0  0  0  0  0  0  0  0  0  0  0  0
    3.3253    1.6169    6.1471 H   0  0  0  0  0  0  0  0  0  0  0  0
    1.5833    1.8957    5.8390 H   0  0  0  0  0  0  0  0  0  0  0  0
    2.1229   -3.3926    5.4820 H   0  0  0  0  0  0  0  0  0  0  0  0
    4.4456   -2.3507    5.2027 H   0  0  0  0  0  0  0  0  0  0  0  0
    4.4272   -3.9428    5.9232 H   0  0  0  0  0  0  0  0  0  0  0  0
    5.9978   -2.5247    7.1244 H   0  0  0  0  0  0  0  0  0  0  0  0
    4.7689   -1.3055    7.4266 H   0  0  0  0  0  0  0  0  0  0  0  0
    4.8448   -4.1581    8.5197 H   0  0  0  0  0  0  0  0  0  0  0  0
    5.0567   -2.6706    9.4379 H   0  0  0  0  0  0  0  0  0  0  0  0
    2.7725   -3.6668    9.7011 H   0  0  0  0  0  0  0  0  0  0  0  0
    2.7305   -2.0262    9.0756 H   0  0  0  0  0  0  0  0  0  0  0  0
    2.4227   -4.6250    7.5016 H   0  0  0  0  0  0  0  0  0  0  0  0
    1.1555   -3.4552    7.8104 H   0  0  0  0  0  0  0  0  0  0  0  0
    3.1123    2.3960    0.5133 H   0  0  0  0  0  0  0  0  0  0  0  0
    1.6625    1.6560    0.3370 H   0  0  0  0  0  0  0  0  0  0  0  0
  1  2  1  0  0  0  0
  1 19  1  0  0  0  0
  1 20  1  0  0  0  0
  1 21  1  0  0  0  0
  2  3  1  0  0  0  0
  2 22  1  0  0  0  0
  2 23  1  0  0  0  0
  3 18  1  0  0  0  0
  3  4  1  0  0  0  0
  3 24  1  0  0  0  0
  4  9  1  0  0  0  0
  4  5  2  0  0  0  0
  5  6  1  0  0  0  0
  5 25  1  0  0  0  0
  6  7  2  0  0  0  0
  7  8  1  0  0  0  0
  7 11  1  0  0  0  0
  8  9  2  0  0  0  0
  8 10  1  0  0  0  0
  9 26  1  0  0  0  0
 10 27  1  0  0  0  0
 10 28  1  0  0  0  0
 10 29  1  0  0  0  0
 11 12  1  0  0  0  0
 12 17  1  0  0  0  0
 12 13  1  0  0  0  0
 12 30  1  0  0  0  0
 13 14  1  0  0  0  0
 13 31  1  0  0  0  0
 13 32  1  0  0  0  0
 14 15  1  0  0  0  0
 14 33  1  0  0  0  0
 14 34  1  0  0  0  0
 15 16  1  0  0  0  0
 15 35  1  0  0  0  0
 15 36  1  0  0  0  0
 16 17  1  0  0  0  0
 16 37  1  0  0  0  0
 16 38  1  0  0  0  0
 17 39  1  0  0  0  0
 17 40  1  0  0  0  0
 18 41  1  0  0  0  0
 18 42  1  0  0  0  0
M  END
$$$$