535956 535955
 OpenBabel01161410183D

 16 16  0  0  0  0  0  0  0  0999 V2000
    0.9790   -0.0960    0.2257 S   0  0  0  0  0  0  0  0  0  0  0  0
    2.7781    0.0740    0.0785 C   0  0  0  0  0  0  0  0  0  0  0  0
    3.2072    0.3056   -1.3467 C   0  0  0  0  0  0  0  0  0  0  0  0
    3.2983    1.6082   -1.8608 C   0  0  0  0  0  0  0  0  0  0  0  0
    3.6856    1.8224   -3.1859 C   0  0  0  0  0  0  0  0  0  0  0  0
    3.9786    0.7352   -4.0058 C   0  0  0  0  0  0  0  0  0  0  0  0
    3.8838   -0.5643   -3.5140 C   0  0  0  0  0  0  0  0  0  0  0  0
    3.4965   -0.7792   -2.1886 C   0  0  0  0  0  0  0  0  0  0  0  0
    4.4559    0.9991   -5.6378 Cl  0  0  0  0  0  0  0  0  0  0  0  0
    0.9554   -0.2801    1.5523 H   0  0  0  0  0  0  0  0  0  0  0  0
    3.2530   -0.8301    0.4740 H   0  0  0  0  0  0  0  0  0  0  0  0
    3.1085    0.9040    0.7123 H   0  0  0  0  0  0  0  0  0  0  0  0
    3.0604    2.4649   -1.2331 H   0  0  0  0  0  0  0  0  0  0  0  0
    3.7514    2.8361   -3.5715 H   0  0  0  0  0  0  0  0  0  0  0  0
    4.1046   -1.4137   -4.1557 H   0  0  0  0  0  0  0  0  0  0  0  0
    3.4146   -1.7991   -1.8197 H   0  0  0  0  0  0  0  0  0  0  0  0
  1  2  1  0  0  0  0
  1 10  1  0  0  0  0
  2  3  1  0  0  0  0
  2 11  1  0  0  0  0
  2 12  1  0  0  0  0
  3  4  2  0  0  0  0
  3  8  1  0  0  0  0
  4  5  1  0  0  0  0
  4 13  1  0  0  0  0
  5  6  2  0  0  0  0
  5 14  1  0  0  0  0
  6  7  1  0  0  0  0
  6  9  1  0  0  0  0
  7  8  2  0  0  0  0
  7 15  1  0  0  0  0
  8 16  1  0  0  0  0
M  END
$$$$