6196450 6196449
 OpenBabel01161410533D

 14 13  0  0  0  0  0  0  0  0999 V2000
    0.8980   -0.0511    0.7461 Cl  0  0  0  0  0  0  0  0  0  0  0  0
    2.6307   -0.1031    0.3517 C   0  0  0  0  0  0  0  0  0  0  0  0
    3.3600    1.5989    0.4242 Si  0  0  0  0  0  0  0  0  0  0  0  0
    2.4517    2.8078   -0.6451 C   0  0  0  0  0  0  0  0  0  0  0  0
    2.5456    2.2855   -2.3439 Cl  0  0  0  0  0  0  0  0  0  0  0  0
    3.2764    2.2857    2.3707 Cl  0  0  0  0  0  0  0  0  0  0  0  0
    5.1737    1.5375   -0.0244 C   0  0  0  0  0  0  0  0  0  0  0  0
    2.7267   -0.5401   -0.6460 H   0  0  0  0  0  0  0  0  0  0  0  0
    3.1121   -0.7787    1.0641 H   0  0  0  0  0  0  0  0  0  0  0  0
    2.8905    3.8082   -0.5858 H   0  0  0  0  0  0  0  0  0  0  0  0
    1.3935    2.8846   -0.3797 H   0  0  0  0  0  0  0  0  0  0  0  0
    5.7219    0.8818    0.6590 H   0  0  0  0  0  0  0  0  0  0  0  0
    5.6227    2.5340    0.0273 H   0  0  0  0  0  0  0  0  0  0  0  0
    5.3128    1.1556   -1.0402 H   0  0  0  0  0  0  0  0  0  0  0  0
  1  2  1  0  0  0  0
  2  3  1  0  0  0  0
  2  8  1  0  0  0  0
  2  9  1  0  0  0  0
  3  7  1  0  0  0  0
  3  6  1  0  0  0  0
  3  4  1  0  0  0  0
  4  5  1  0  0  0  0
  4 10  1  0  0  0  0
  4 11  1  0  0  0  0
  7 12  1  0  0  0  0
  7 13  1  0  0  0  0
  7 14  1  0  0  0  0
M  END
$$$$