1106418 1106417
 OpenBabel01161409543D

 37 40  0  0  1  0  0  0  0  0999 V2000
    0.8351   -0.7694    1.1974 O   0  0  0  0  0  0  0  0  0  0  0  0
    2.0568   -0.2519    0.6797 C   0  0  0  0  0  0  0  0  0  0  0  0
    2.5530    0.9354    1.5161 C   0  0  3  0  0  0  0  0  0  0  0  0
    1.4837    2.0423    1.6109 C   0  0  0  0  0  0  0  0  0  0  0  0
    1.9942    3.2290    2.4017 C   0  0  0  0  0  0  0  0  0  0  0  0
    1.6918    4.5375    2.0010 C   0  0  0  0  0  0  0  0  0  0  0  0
    2.1662    5.6217    2.7360 C   0  0  0  0  0  0  0  0  0  0  0  0
    2.9359    5.4053    3.8753 C   0  0  0  0  0  0  0  0  0  0  0  0
    3.2264    4.1024    4.2855 C   0  0  0  0  0  0  0  0  0  0  0  0
    2.7555    2.9900    3.5690 C   0  0  0  0  0  0  0  0  0  0  0  0
    3.0536    1.5546    4.0086 C   0  0  3  0  0  0  0  0  0  0  0  0
    2.9791    0.4923    2.9031 C   0  0  3  0  0  0  0  0  0  0  0  0
    4.3129    0.8986    3.4649 C   0  0  0  0  0  0  0  0  0  0  0  0
    2.5361    1.1376    5.3852 C   0  0  0  0  0  0  0  0  0  0  0  0
    3.3635    1.1533    6.5219 C   0  0  0  0  0  0  0  0  0  0  0  0
    2.8843    0.7711    7.7780 C   0  0  0  0  0  0  0  0  0  0  0  0
    1.5609    0.3657    7.9248 C   0  0  0  0  0  0  0  0  0  0  0  0
    0.7177    0.3458    6.8177 C   0  0  0  0  0  0  0  0  0  0  0  0
    1.2021    0.7304    5.5651 C   0  0  0  0  0  0  0  0  0  0  0  0
    0.6171   -1.5616    0.6768 H   0  0  0  0  0  0  0  0  0  0  0  0
    1.8780    0.0608   -0.3547 H   0  0  0  0  0  0  0  0  0  0  0  0
    2.7989   -1.0577    0.6766 H   0  0  0  0  0  0  0  0  0  0  0  0
    3.4336    1.3437    1.0013 H   0  0  0  0  0  0  0  0  0  0  0  0
    0.5743    1.6760    2.1033 H   0  0  0  0  0  0  0  0  0  0  0  0
    1.2067    2.3605    0.5985 H   0  0  0  0  0  0  0  0  0  0  0  0
    1.0900    4.7163    1.1136 H   0  0  0  0  0  0  0  0  0  0  0  0
    1.9340    6.6355    2.4211 H   0  0  0  0  0  0  0  0  0  0  0  0
    3.3054    6.2491    4.4515 H   0  0  0  0  0  0  0  0  0  0  0  0
    3.8202    3.9501    5.1833 H   0  0  0  0  0  0  0  0  0  0  0  0
    2.5882   -0.4816    3.1779 H   0  0  0  0  0  0  0  0  0  0  0  0
    4.9791    1.5002    2.8561 H   0  0  0  0  0  0  0  0  0  0  0  0
    4.8341    0.1756    4.0831 H   0  0  0  0  0  0  0  0  0  0  0  0
    4.3993    1.4697    6.4248 H   0  0  0  0  0  0  0  0  0  0  0  0
    3.5459    0.7915    8.6397 H   0  0  0  0  0  0  0  0  0  0  0  0
    1.1863    0.0677    8.8999 H   0  0  0  0  0  0  0  0  0  0  0  0
   -0.3175    0.0331    6.9246 H   0  0  0  0  0  0  0  0  0  0  0  0
    0.5307    0.7127    4.7082 H   0  0  0  0  0  0  0  0  0  0  0  0
  1  2  1  0  0  0  0
  1 20  1  0  0  0  0
  2  3  1  0  0  0  0
  2 21  1  0  0  0  0
  2 22  1  0  0  0  0
  3 12  1  0  0  0  0
  3  4  1  0  0  0  0
  3 23  1  0  0  0  0
  4  5  1  0  0  0  0
  4 24  1  0  0  0  0
  4 25  1  0  0  0  0
  5  6  2  0  0  0  0
  5 10  1  0  0  0  0
  6  7  1  0  0  0  0
  6 26  1  0  0  0  0
  7  8  2  0  0  0  0
  7 27  1  0  0  0  0
  8  9  1  0  0  0  0
  8 28  1  0  0  0  0
  9 10  2  0  0  0  0
  9 29  1  0  0  0  0
 10 11  1  0  0  0  0
 11 12  1  0  0  0  0
 11 13  1  0  0  0  0
 11 14  1  0  0  0  0
 12 13  1  0  0  0  0
 12 30  1  0  0  0  0
 13 31  1  0  0  0  0
 13 32  1  0  0  0  0
 14 15  2  0  0  0  0
 14 19  1  0  0  0  0
 15 16  1  0  0  0  0
 15 33  1  0  0  0  0
 16 17  2  0  0  0  0
 16 34  1  0  0  0  0
 17 18  1  0  0  0  0
 17 35  1  0  0  0  0
 18 19  2  0  0  0  0
 18 36  1  0  0  0  0
 19 37  1  0  0  0  0
M  END
$$$$