491171 491170
 OpenBabel01161410133D

 28 27  0  0  0  0  0  0  0  0999 V2000
    3.0534    0.8105   -2.8705 C   0  0  0  0  0  0  0  0  0  0  0  0
    2.0952    1.8509   -2.9826 O   0  0  0  0  0  0  0  0  0  0  0  0
    1.9402    2.8260   -1.7003 P   0  0  3  0  0  0  0  0  0  0  0  0
    1.1519    4.1158   -2.4682 N   0  0  0  0  0  0  0  0  0  0  0  0
    1.8665    5.3670   -2.7691 C   0  0  0  0  0  0  0  0  0  0  0  0
    2.2231    6.1264   -1.4822 C   0  0  0  0  0  0  0  0  0  0  0  0
    3.1164    5.1835   -3.6423 C   0  0  0  0  0  0  0  0  0  0  0  0
   -0.0867    3.8673   -3.2274 C   0  0  0  0  0  0  0  0  0  0  0  0
   -1.1906    4.8499   -2.8117 C   0  0  0  0  0  0  0  0  0  0  0  0
    0.1000    3.8787   -4.7494 C   0  0  0  0  0  0  0  0  0  0  0  0
    0.5986    1.7012   -0.5449 Cl  0  0  0  0  0  0  0  0  0  0  0  0
    2.7912    0.1072   -2.0723 H   0  0  0  0  0  0  0  0  0  0  0  0
    4.0600    1.2122   -2.7072 H   0  0  0  0  0  0  0  0  0  0  0  0
    3.0620    0.2564   -3.8145 H   0  0  0  0  0  0  0  0  0  0  0  0
    1.2069    6.0447   -3.3239 H   0  0  0  0  0  0  0  0  0  0  0  0
    2.9577    5.5902   -0.8726 H   0  0  0  0  0  0  0  0  0  0  0  0
    1.3302    6.3000   -0.8713 H   0  0  0  0  0  0  0  0  0  0  0  0
    2.6504    7.1060   -1.7240 H   0  0  0  0  0  0  0  0  0  0  0  0
    3.9132    4.6462   -3.1175 H   0  0  0  0  0  0  0  0  0  0  0  0
    3.5199    6.1603   -3.9322 H   0  0  0  0  0  0  0  0  0  0  0  0
    2.8859    4.6404   -4.5639 H   0  0  0  0  0  0  0  0  0  0  0  0
   -0.4849    2.8739   -2.9805 H   0  0  0  0  0  0  0  0  0  0  0  0
   -0.9816    5.8751   -3.1323 H   0  0  0  0  0  0  0  0  0  0  0  0
   -1.3242    4.8514   -1.7240 H   0  0  0  0  0  0  0  0  0  0  0  0
   -2.1470    4.5561   -3.2588 H   0  0  0  0  0  0  0  0  0  0  0  0
    0.3747    4.8684   -5.1274 H   0  0  0  0  0  0  0  0  0  0  0  0
   -0.8322    3.5880   -5.2466 H   0  0  0  0  0  0  0  0  0  0  0  0
    0.8701    3.1657   -5.0602 H   0  0  0  0  0  0  0  0  0  0  0  0
  1  2  1  0  0  0  0
  1 12  1  0  0  0  0
  1 13  1  0  0  0  0
  1 14  1  0  0  0  0
  2  3  1  0  0  0  0
  3 11  1  0  0  0  0
  3  4  1  0  0  0  0
  4  8  1  0  0  0  0
  4  5  1  0  0  0  0
  5  7  1  0  0  0  0
  5  6  1  0  0  0  0
  5 15  1  0  0  0  0
  6 16  1  0  0  0  0
  6 17  1  0  0  0  0
  6 18  1  0  0  0  0
  7 19  1  0  0  0  0
  7 20  1  0  0  0  0
  7 21  1  0  0  0  0
  8 10  1  0  0  0  0
  8  9  1  0  0  0  0
  8 22  1  0  0  0  0
  9 23  1  0  0  0  0
  9 24  1  0  0  0  0
  9 25  1  0  0  0  0
 10 26  1  0  0  0  0
 10 27  1  0  0  0  0
 10 28  1  0  0  0  0
M  END
$$$$