6781658 6781657
 OpenBabel01161410443D

 31 32  0  0  1  0  0  0  0  0999 V2000
    3.7694   -3.3267    0.7480 C   0  0  0  0  0  0  0  0  0  0  0  0
    4.7817   -2.1991    0.7339 C   0  0  0  0  0  0  0  0  0  0  0  0
    5.0516   -1.8439   -0.6210 O   0  0  0  0  0  0  0  0  0  0  0  0
    5.9747   -0.7684   -0.7337 C   0  0  3  0  0  0  0  0  0  0  0  0
    6.0982   -0.3076   -2.1996 C   0  0  0  0  0  0  0  0  0  0  0  0
    7.6102   -0.4879   -2.4895 C   0  0  3  0  0  0  0  0  0  0  0  0
    8.2492   -0.0905   -1.1467 C   0  0  3  0  0  0  0  0  0  0  0  0
    7.4465   -1.1426   -0.3870 C   0  0  3  0  0  0  0  0  0  0  0  0
    7.8437   -2.4087   -1.0883 N   0  0  0  0  0  0  0  0  0  0  0  0
    7.9852   -2.0089   -2.5705 C   0  0  0  0  0  0  0  0  0  0  0  0
    7.1307   -2.8142   -3.5738 C   0  0  0  0  0  0  0  0  0  0  0  0
    7.5966   -4.0689   -3.7640 F   0  0  0  0  0  0  0  0  0  0  0  0
    5.8459   -2.9475   -3.1893 F   0  0  0  0  0  0  0  0  0  0  0  0
    7.1107   -2.2051   -4.7842 F   0  0  0  0  0  0  0  0  0  0  0  0
    9.4096   -2.1878   -3.1533 C   0  0  0  0  0  0  0  0  0  0  0  0
   10.3297   -1.5350   -2.4003 F   0  0  0  0  0  0  0  0  0  0  0  0
    9.8064   -3.4775   -3.1692 F   0  0  0  0  0  0  0  0  0  0  0  0
    9.5224   -1.6961   -4.4034 F   0  0  0  0  0  0  0  0  0  0  0  0
    7.9773    1.5888   -0.6457 Cl  0  0  0  0  0  0  0  0  0  0  0  0
    3.5316   -3.6215    1.7742 H   0  0  0  0  0  0  0  0  0  0  0  0
    4.1564   -4.1984    0.2110 H   0  0  0  0  0  0  0  0  0  0  0  0
    2.8459   -3.0237    0.2448 H   0  0  0  0  0  0  0  0  0  0  0  0
    5.7005   -2.5260    1.2306 H   0  0  0  0  0  0  0  0  0  0  0  0
    4.3755   -1.3325    1.2678 H   0  0  0  0  0  0  0  0  0  0  0  0
    5.6185    0.0689   -0.1210 H   0  0  0  0  0  0  0  0  0  0  0  0
    5.8290    0.7530   -2.2788 H   0  0  0  0  0  0  0  0  0  0  0  0
    5.4417   -0.8374   -2.8914 H   0  0  0  0  0  0  0  0  0  0  0  0
    7.9540    0.0962   -3.3477 H   0  0  0  0  0  0  0  0  0  0  0  0
    9.3244   -0.2534   -1.0761 H   0  0  0  0  0  0  0  0  0  0  0  0
    7.6376   -1.2025    0.6866 H   0  0  0  0  0  0  0  0  0  0  0  0
    8.7566   -2.7190   -0.7410 H   0  0  0  0  0  0  0  0  0  0  0  0
  1  2  1  0  0  0  0
  1 20  1  0  0  0  0
  1 21  1  0  0  0  0
  1 22  1  0  0  0  0
  2  3  1  0  0  0  0
  2 23  1  0  0  0  0
  2 24  1  0  0  0  0
  3  4  1  0  0  0  0
  4  5  1  0  0  0  0
  4  8  1  0  0  0  0
  4 25  1  0  0  0  0
  5  6  1  0  0  0  0
  5 26  1  0  0  0  0
  5 27  1  0  0  0  0
  6 10  1  0  0  0  0
  6  7  1  0  0  0  0
  6 28  1  0  0  0  0
  7  8  1  0  0  0  0
  7 19  1  0  0  0  0
  7 29  1  0  0  0  0
  8  9  1  0  0  0  0
  8 30  1  0  0  0  0
  9 10  1  0  0  0  0
  9 31  1  0  0  0  0
 10 15  1  0  0  0  0
 10 11  1  0  0  0  0
 11 14  1  0  0  0  0
 11 13  1  0  0  0  0
 11 12  1  0  0  0  0
 15 18  1  0  0  0  0
 15 17  1  0  0  0  0
 15 16  1  0  0  0  0
M  END
$$$$