31413756 31413755
 OpenBabel01161410213D

 20 21  0  0  1  0  0  0  0  0999 V2000
    1.1282    0.1142    0.1677 S   0  0  0  0  0  0  0  0  0  0  0  0
    2.9437    0.0998    0.1607 C   0  0  3  0  0  0  0  0  0  0  0  0
    3.5046   -1.1632    0.8457 C   0  0  0  0  0  0  0  0  0  0  0  0
    4.3293   -0.7412    2.0751 C   0  0  0  0  0  0  0  0  0  0  0  0
    4.3249    0.7476    2.0070 C   0  0  0  0  0  0  0  0  0  0  0  0
    3.5420    1.2212    0.9545 C   0  0  0  0  0  0  0  0  0  0  0  0
    3.4086    2.5862    0.7319 C   0  0  0  0  0  0  0  0  0  0  0  0
    4.0615    3.4746    1.5897 C   0  0  0  0  0  0  0  0  0  0  0  0
    4.8411    2.9942    2.6501 C   0  0  0  0  0  0  0  0  0  0  0  0
    4.9779    1.6220    2.8647 C   0  0  0  0  0  0  0  0  0  0  0  0
    0.9696   -0.9446   -0.6347 H   0  0  0  0  0  0  0  0  0  0  0  0
    3.2935    0.1477   -0.8755 H   0  0  0  0  0  0  0  0  0  0  0  0
    2.7356   -1.8903    1.1357 H   0  0  0  0  0  0  0  0  0  0  0  0
    4.1596   -1.6966    0.1422 H   0  0  0  0  0  0  0  0  0  0  0  0
    3.8567   -1.0878    2.9990 H   0  0  0  0  0  0  0  0  0  0  0  0
    5.3484   -1.1381    2.0140 H   0  0  0  0  0  0  0  0  0  0  0  0
    2.8012    2.9619   -0.0857 H   0  0  0  0  0  0  0  0  0  0  0  0
    3.9603    4.5461    1.4362 H   0  0  0  0  0  0  0  0  0  0  0  0
    5.3404    3.6974    3.3126 H   0  0  0  0  0  0  0  0  0  0  0  0
    5.5794    1.2519    3.6888 H   0  0  0  0  0  0  0  0  0  0  0  0
  1  2  1  0  0  0  0
  1 11  1  0  0  0  0
  2  3  1  0  0  0  0
  2  6  1  0  0  0  0
  2 12  1  0  0  0  0
  3  4  1  0  0  0  0
  3 13  1  0  0  0  0
  3 14  1  0  0  0  0
  4  5  1  0  0  0  0
  4 15  1  0  0  0  0
  4 16  1  0  0  0  0
  5 10  1  0  0  0  0
  5  6  2  0  0  0  0
  6  7  1  0  0  0  0
  7  8  2  0  0  0  0
  7 17  1  0  0  0  0
  8  9  1  0  0  0  0
  8 18  1  0  0  0  0
  9 10  2  0  0  0  0
  9 19  1  0  0  0  0
 10 20  1  0  0  0  0
M  END
$$$$