36366669 36366668
 OpenBabel01161410173D

 41 44  0  0  1  0  0  0  0  0999 V2000
    2.6516   -2.1780   -0.0022 Cl  0  0  0  0  0  0  0  0  0  0  0  0
    2.5533   -0.4577    0.0631 C   0  0  0  0  0  0  0  0  0  0  0  0
    3.6122    0.3114   -0.4221 C   0  0  0  0  0  0  0  0  0  0  0  0
    3.5639    1.7244   -0.3865 C   0  0  0  0  0  0  0  0  0  0  0  0
    2.4192    2.3225    0.1753 C   0  0  0  0  0  0  0  0  0  0  0  0
    1.3580    1.5487    0.6577 C   0  0  0  0  0  0  0  0  0  0  0  0
    1.4289    0.1641    0.5988 C   0  0  0  0  0  0  0  0  0  0  0  0
    0.3665   -0.5424    1.0894 O   0  0  0  0  0  0  0  0  0  0  0  0
    4.7702    2.5308   -0.9176 C   0  0  3  0  0  0  0  0  0  0  0  0
    5.8660    2.0722   -0.0511 O   0  0  0  0  0  0  0  0  0  0  0  0
    6.4992    3.2739    0.8247 S   0  0  0  0  0  0  0  0  0  0  0  0
    5.5526    4.5578    0.2586 C   0  0  0  0  0  0  0  0  0  0  0  0
    4.6772    4.0559   -0.7061 C   0  0  0  0  0  0  0  0  0  0  0  0
    3.8349    4.9563   -1.3552 C   0  0  0  0  0  0  0  0  0  0  0  0
    3.8731    6.3088   -0.9907 C   0  0  0  0  0  0  0  0  0  0  0  0
    4.7575    6.7649    0.0016 C   0  0  0  0  0  0  0  0  0  0  0  0
    5.6245    5.8793    0.6373 C   0  0  0  0  0  0  0  0  0  0  0  0
    8.0570    3.3774    0.4791 O   0  0  0  0  0  0  0  0  0  0  0  0
    6.3127    2.9067    2.3699 O   0  0  0  0  0  0  0  0  0  0  0  0
    5.1437    2.2067   -2.3768 C   0  0  0  0  0  0  0  0  0  0  0  0
    4.1588    1.9746   -3.3569 C   0  0  0  0  0  0  0  0  0  0  0  0
    4.5084    1.6957   -4.6831 C   0  0  0  0  0  0  0  0  0  0  0  0
    5.8506    1.6593   -5.0548 C   0  0  0  0  0  0  0  0  0  0  0  0
    6.8448    1.9076   -4.1076 C   0  0  0  0  0  0  0  0  0  0  0  0
    6.4933    2.1851   -2.7839 C   0  0  0  0  0  0  0  0  0  0  0  0
    8.5180    1.8819   -4.5308 Cl  0  0  0  0  0  0  0  0  0  0  0  0
    6.1914    1.3832   -6.3496 O   0  0  0  0  0  0  0  0  0  0  0  0
    4.4926   -0.1871   -0.8265 H   0  0  0  0  0  0  0  0  0  0  0  0
    2.3237    3.4025    0.2622 H   0  0  0  0  0  0  0  0  0  0  0  0
    0.4813    2.0299    1.0852 H   0  0  0  0  0  0  0  0  0  0  0  0
    0.5786   -1.4887    0.9885 H   0  0  0  0  0  0  0  0  0  0  0  0
    3.1445    4.6259   -2.1258 H   0  0  0  0  0  0  0  0  0  0  0  0
    3.2118    7.0185   -1.4833 H   0  0  0  0  0  0  0  0  0  0  0  0
    4.7737    7.8197    0.2662 H   0  0  0  0  0  0  0  0  0  0  0  0
    6.3303    6.2131    1.3899 H   0  0  0  0  0  0  0  0  0  0  0  0
    8.5933    2.6636    0.8928 H   0  0  0  0  0  0  0  0  0  0  0  0
    5.4472    2.4859    2.5788 H   0  0  0  0  0  0  0  0  0  0  0  0
    3.1017    2.0033   -3.0969 H   0  0  0  0  0  0  0  0  0  0  0  0
    3.7210    1.5121   -5.4086 H   0  0  0  0  0  0  0  0  0  0  0  0
    7.2849    2.3883   -2.0644 H   0  0  0  0  0  0  0  0  0  0  0  0
    5.3881    1.2292   -6.8716 H   0  0  0  0  0  0  0  0  0  0  0  0
  1  2  1  0  0  0  0
  2  3  2  0  0  0  0
  2  7  1  0  0  0  0
  3  4  1  0  0  0  0
  3 28  1  0  0  0  0
  4  5  2  0  0  0  0
  4  9  1  0  0  0  0
  5  6  1  0  0  0  0
  5 29  1  0  0  0  0
  6  7  2  0  0  0  0
  6 30  1  0  0  0  0
  7  8  1  0  0  0  0
  8 31  1  0  0  0  0
  9 10  1  0  0  0  0
  9 13  1  0  0  0  0
  9 20  1  0  0  0  0
 10 11  1  0  0  0  0
 11 12  1  0  0  0  0
 11 19  1  0  0  0  0
 11 18  1  0  0  0  0
 12 17  1  0  0  0  0
 12 13  2  0  0  0  0
 13 14  1  0  0  0  0
 14 15  2  0  0  0  0
 14 32  1  0  0  0  0
 15 16  1  0  0  0  0
 15 33  1  0  0  0  0
 16 17  2  0  0  0  0
 16 34  1  0  0  0  0
 17 35  1  0  0  0  0
 18 36  1  0  0  0  0
 19 37  1  0  0  0  0
 20 21  2  0  0  0  0
 20 25  1  0  0  0  0
 21 22  1  0  0  0  0
 21 38  1  0  0  0  0
 22 23  2  0  0  0  0
 22 39  1  0  0  0  0
 23 24  1  0  0  0  0
 23 27  1  0  0  0  0
 24 25  2  0  0  0  0
 24 26  1  0  0  0  0
 25 40  1  0  0  0  0
 27 41  1  0  0  0  0
M  END
$$$$