46014840 46014839
 OpenBabel01161410423D

 21 22  0  0  0  0  0  0  0  0999 V2000
    3.0148    0.9510   -0.3074 C   0  0  0  0  0  0  0  0  0  0  0  0
    2.5680   -0.4005   -0.3283 O   0  0  0  0  0  0  0  0  0  0  0  0
    3.1415   -1.1742    0.6630 C   0  0  0  0  0  0  0  0  0  0  0  0
    2.7518   -2.5148    0.6904 C   0  0  0  0  0  0  0  0  0  0  0  0
    3.2884   -3.3589    1.6618 C   0  0  0  0  0  0  0  0  0  0  0  0
    4.1812   -2.8070    2.5567 C   0  0  0  0  0  0  0  0  0  0  0  0
    4.5121   -1.4668    2.4478 C   0  0  0  0  0  0  0  0  0  0  0  0
    4.0226   -0.6192    1.5281 N   0  0  0  0  0  0  0  0  0  0  0  0
    5.5178   -1.1286    3.5121 C   0  0  0  0  0  0  0  0  0  0  0  0
    5.5229   -2.2906    4.4481 N   0  0  0  0  0  0  0  0  0  0  0  0
    4.9388   -3.4219    3.6796 C   0  0  0  0  0  0  0  0  0  0  0  0
    2.5123    1.4803   -1.1228 H   0  0  0  0  0  0  0  0  0  0  0  0
    4.0940    1.0157   -0.4850 H   0  0  0  0  0  0  0  0  0  0  0  0
    2.7387    1.4464    0.6299 H   0  0  0  0  0  0  0  0  0  0  0  0
    2.0423   -2.8882   -0.0404 H   0  0  0  0  0  0  0  0  0  0  0  0
    3.0114   -4.4062    1.7060 H   0  0  0  0  0  0  0  0  0  0  0  0
    5.2460   -0.2105    4.0416 H   0  0  0  0  0  0  0  0  0  0  0  0
    6.5101   -1.0135    3.0642 H   0  0  0  0  0  0  0  0  0  0  0  0
    4.8571   -2.0643    5.1883 H   0  0  0  0  0  0  0  0  0  0  0  0
    4.2891   -4.0193    4.3267 H   0  0  0  0  0  0  0  0  0  0  0  0
    5.7446   -4.0540    3.2921 H   0  0  0  0  0  0  0  0  0  0  0  0
  1  2  1  0  0  0  0
  1 12  1  0  0  0  0
  1 13  1  0  0  0  0
  1 14  1  0  0  0  0
  2  3  1  0  0  0  0
  3  4  2  0  0  0  0
  3  8  1  0  0  0  0
  4  5  1  0  0  0  0
  4 15  1  0  0  0  0
  5  6  2  0  0  0  0
  5 16  1  0  0  0  0
  6  7  1  0  0  0  0
  6 11  1  0  0  0  0
  7  8  2  0  0  0  0
  7  9  1  0  0  0  0
  9 10  1  0  0  0  0
  9 17  1  0  0  0  0
  9 18  1  0  0  0  0
 10 11  1  0  0  0  0
 10 19  1  0  0  0  0
 11 20  1  0  0  0  0
 11 21  1  0  0  0  0
M  END
$$$$