4397879 2332908
 OpenBabel01161410123D

 38 41  0  0  1  0  0  0  0  0999 V2000
   -0.7628   -4.6462   -2.4599 N   0  0  0  0  0  0  0  0  0  0  0  0
   -0.7513   -4.2135   -1.1813 C   0  0  0  0  0  0  0  0  0  0  0  0
    0.2618   -3.4389   -0.6351 C   0  0  0  0  0  0  0  0  0  0  0  0
    1.3400   -3.0770   -1.4463 C   0  0  0  0  0  0  0  0  0  0  0  0
    1.3384   -3.5022   -2.7783 C   0  0  0  0  0  0  0  0  0  0  0  0
    0.2825   -4.2786   -3.2299 C   0  0  0  0  0  0  0  0  0  0  0  0
    2.4778   -2.2467   -0.8988 C   0  0  0  0  0  0  0  0  0  0  0  0
    3.8021   -3.0167   -0.9132 C   0  0  0  0  0  0  0  0  0  0  0  0
    5.1318   -1.9839   -0.2042 S   0  0  0  0  0  0  0  0  0  0  0  0
    6.5869   -3.0570   -0.4617 C   0  0  3  0  0  0  0  0  0  0  0  0
    6.4994   -4.4589    0.2457 C   0  0  0  0  0  0  0  0  0  0  0  0
    6.6831   -5.4356   -0.8678 C   0  0  0  0  0  0  0  0  0  0  0  0
    6.8698   -4.7627   -2.0597 C   0  0  0  0  0  0  0  0  0  0  0  0
    6.8235   -3.3905   -1.9030 C   0  0  0  0  0  0  0  0  0  0  0  0
    7.0239   -2.5429   -2.9888 C   0  0  0  0  0  0  0  0  0  0  0  0
    7.2503   -3.1576   -4.2331 C   0  0  0  0  0  0  0  0  0  0  0  0
    7.2854   -4.5583   -4.3779 C   0  0  0  0  0  0  0  0  0  0  0  0
    7.0950   -5.3898   -3.2599 C   0  0  0  0  0  0  0  0  0  0  0  0
    7.1192   -6.7951   -3.2409 C   0  0  0  0  0  0  0  0  0  0  0  0
    6.9248   -7.4922   -2.0313 C   0  0  0  0  0  0  0  0  0  0  0  0
    6.7026   -6.8226   -0.8154 C   0  0  0  0  0  0  0  0  0  0  0  0
   -1.6062   -4.5169   -0.5833 H   0  0  0  0  0  0  0  0  0  0  0  0
    0.2027   -3.1295    0.4028 H   0  0  0  0  0  0  0  0  0  0  0  0
    2.1438   -3.2411   -3.4578 H   0  0  0  0  0  0  0  0  0  0  0  0
    0.2512   -4.6361   -4.2550 H   0  0  0  0  0  0  0  0  0  0  0  0
    2.2388   -1.9339    0.1260 H   0  0  0  0  0  0  0  0  0  0  0  0
    2.5522   -1.3296   -1.4967 H   0  0  0  0  0  0  0  0  0  0  0  0
    4.0647   -3.2875   -1.9397 H   0  0  0  0  0  0  0  0  0  0  0  0
    3.7001   -3.9354   -0.3285 H   0  0  0  0  0  0  0  0  0  0  0  0
    7.4633   -2.5184   -0.0814 H   0  0  0  0  0  0  0  0  0  0  0  0
    5.5511   -4.6373    0.7620 H   0  0  0  0  0  0  0  0  0  0  0  0
    7.3170   -4.5718    0.9665 H   0  0  0  0  0  0  0  0  0  0  0  0
    7.0040   -1.4652   -2.8769 H   0  0  0  0  0  0  0  0  0  0  0  0
    7.4095   -2.5321   -5.1094 H   0  0  0  0  0  0  0  0  0  0  0  0
    7.4710   -4.9915   -5.3577 H   0  0  0  0  0  0  0  0  0  0  0  0
    7.2956   -7.3538   -4.1583 H   0  0  0  0  0  0  0  0  0  0  0  0
    6.9529   -8.5793   -2.0386 H   0  0  0  0  0  0  0  0  0  0  0  0
    6.5604   -7.3587    0.1158 H   0  0  0  0  0  0  0  0  0  0  0  0
  1  2  2  0  0  0  0
  1  6  1  0  0  0  0
  2  3  1  0  0  0  0
  2 22  1  0  0  0  0
  3  4  2  0  0  0  0
  3 23  1  0  0  0  0
  4  5  1  0  0  0  0
  4  7  1  0  0  0  0
  5  6  2  0  0  0  0
  5 24  1  0  0  0  0
  6 25  1  0  0  0  0
  7  8  1  0  0  0  0
  7 26  1  0  0  0  0
  7 27  1  0  0  0  0
  8  9  1  0  0  0  0
  8 28  1  0  0  0  0
  8 29  1  0  0  0  0
  9 10  1  0  0  0  0
 10 14  1  0  0  0  0
 10 11  1  0  0  0  0
 10 30  1  0  0  0  0
 11 12  1  0  0  0  0
 11 31  1  0  0  0  0
 11 32  1  0  0  0  0
 12 21  1  0  0  0  0
 12 13  2  0  0  0  0
 13 14  1  0  0  0  0
 13 18  1  0  0  0  0
 14 15  2  0  0  0  0
 15 16  1  0  0  0  0
 15 33  1  0  0  0  0
 16 17  2  0  0  0  0
 16 34  1  0  0  0  0
 17 18  1  0  0  0  0
 17 35  1  0  0  0  0
 18 19  2  0  0  0  0
 19 20  1  0  0  0  0
 19 36  1  0  0  0  0
 20 21  2  0  0  0  0
 20 37  1  0  0  0  0
 21 38  1  0  0  0  0
M  END
$$$$