972317 972316
 OpenBabel01161410063D

 25 25  0  0  0  0  0  0  0  0999 V2000
   -0.0862   -5.8657    2.2010 C   0  0  0  0  0  0  0  0  0  0  0  0
    0.6493   -6.9621    1.6728 O   0  0  0  0  0  0  0  0  0  0  0  0
    1.9916   -6.6278    1.3029 C   0  0  0  0  0  0  0  0  0  0  0  0
    2.0341   -5.6271    0.1564 C   0  0  0  0  0  0  0  0  0  0  0  0
    2.7302   -4.4142    0.2479 C   0  0  0  0  0  0  0  0  0  0  0  0
    2.7681   -3.5374   -0.8359 C   0  0  0  0  0  0  0  0  0  0  0  0
    2.0953   -3.8545   -2.0163 C   0  0  0  0  0  0  0  0  0  0  0  0
    1.3443   -5.0265   -2.1149 C   0  0  0  0  0  0  0  0  0  0  0  0
    1.3678   -5.9288   -1.0474 C   0  0  0  0  0  0  0  0  0  0  0  0
    0.7712   -5.3968   -3.3383 N   0  0  0  0  0  0  0  0  0  0  0  0
    2.7640   -6.1867    2.4233 O   0  0  0  0  0  0  0  0  0  0  0  0
    2.9556   -7.2229    3.3769 C   0  0  0  0  0  0  0  0  0  0  0  0
   -1.0301   -6.2535    2.5949 H   0  0  0  0  0  0  0  0  0  0  0  0
   -0.3232   -5.1395    1.4183 H   0  0  0  0  0  0  0  0  0  0  0  0
    0.4491   -5.3773    3.0207 H   0  0  0  0  0  0  0  0  0  0  0  0
    2.4552   -7.5457    0.9184 H   0  0  0  0  0  0  0  0  0  0  0  0
    3.2626   -4.1516    1.1602 H   0  0  0  0  0  0  0  0  0  0  0  0
    3.3335   -2.6120   -0.7649 H   0  0  0  0  0  0  0  0  0  0  0  0
    2.1613   -3.1739   -2.8605 H   0  0  0  0  0  0  0  0  0  0  0  0
    0.8486   -6.8809   -1.1381 H   0  0  0  0  0  0  0  0  0  0  0  0
    0.0087   -6.0606   -3.2432 H   0  0  0  0  0  0  0  0  0  0  0  0
    0.5180   -4.6057   -3.9218 H   0  0  0  0  0  0  0  0  0  0  0  0
    3.6219   -6.8475    4.1582 H   0  0  0  0  0  0  0  0  0  0  0  0
    3.4221   -8.0995    2.9162 H   0  0  0  0  0  0  0  0  0  0  0  0
    2.0056   -7.5006    3.8412 H   0  0  0  0  0  0  0  0  0  0  0  0
  1  2  1  0  0  0  0
  1 13  1  0  0  0  0
  1 14  1  0  0  0  0
  1 15  1  0  0  0  0
  2  3  1  0  0  0  0
  3 11  1  0  0  0  0
  3  4  1  0  0  0  0
  3 16  1  0  0  0  0
  4  5  2  0  0  0  0
  4  9  1  0  0  0  0
  5  6  1  0  0  0  0
  5 17  1  0  0  0  0
  6  7  2  0  0  0  0
  6 18  1  0  0  0  0
  7  8  1  0  0  0  0
  7 19  1  0  0  0  0
  8  9  2  0  0  0  0
  8 10  1  0  0  0  0
  9 20  1  0  0  0  0
 10 21  1  0  0  0  0
 10 22  1  0  0  0  0
 11 12  1  0  0  0  0
 12 23  1  0  0  0  0
 12 24  1  0  0  0  0
 12 25  1  0  0  0  0
M  END
$$$$