8270613 8270612
 OpenBabel01161410063D

 38 41  0  0  1  0  0  0  0  0999 V2000
    1.5518   -0.3049    0.0074 O   0  0  0  0  0  0  0  0  0  0  0  0
    2.9958   -0.2338    0.0256 C   0  0  3  0  0  0  0  0  0  0  0  0
    3.4672    1.2947   -0.2596 C   0  0  3  0  0  0  0  0  0  0  0  0
    3.0991    1.8815   -1.6454 C   0  0  0  0  0  0  0  0  0  0  0  0
    3.7768    2.8813   -2.3353 C   0  0  0  0  0  0  0  0  0  0  0  0
    3.1759    3.2153   -3.5820 C   0  0  0  0  0  0  0  0  0  0  0  0
    2.0395    2.4789   -3.8143 C   0  0  0  0  0  0  0  0  0  0  0  0
    1.7052    1.4038   -2.5360 S   0  0  0  0  0  0  0  0  0  0  0  0
    3.0296    2.2414    0.8775 C   0  0  0  0  0  0  0  0  0  0  0  0
    3.7781    2.6806    1.9620 C   0  0  0  0  0  0  0  0  0  0  0  0
    3.0544    3.5434    2.8320 C   0  0  0  0  0  0  0  0  0  0  0  0
    1.7706    3.7540    2.3896 C   0  0  0  0  0  0  0  0  0  0  0  0
    1.4375    2.8950    0.9529 S   0  0  0  0  0  0  0  0  0  0  0  0
    4.9195    1.3777   -0.2393 O   0  0  0  0  0  0  0  0  0  0  0  0
    3.4410   -0.7427    1.4255 C   0  0  0  0  0  0  0  0  0  0  0  0
    4.7132   -0.7811    1.9797 C   0  0  0  0  0  0  0  0  0  0  0  0
    4.7393   -1.3220    3.2976 C   0  0  0  0  0  0  0  0  0  0  0  0
    3.4876   -1.6918    3.7260 C   0  0  0  0  0  0  0  0  0  0  0  0
    2.2960   -1.3981    2.5443 S   0  0  0  0  0  0  0  0  0  0  0  0
    3.4556   -1.2319   -1.0650 C   0  0  0  0  0  0  0  0  0  0  0  0
    2.6753   -2.0875   -1.8329 C   0  0  0  0  0  0  0  0  0  0  0  0
    3.4320   -2.8712   -2.7507 C   0  0  0  0  0  0  0  0  0  0  0  0
    4.7769   -2.6066   -2.6631 C   0  0  0  0  0  0  0  0  0  0  0  0
    5.1189   -1.4291   -1.4813 S   0  0  0  0  0  0  0  0  0  0  0  0
    1.3065   -1.0822    0.5368 H   0  0  0  0  0  0  0  0  0  0  0  0
    4.6703    3.3585   -1.9478 H   0  0  0  0  0  0  0  0  0  0  0  0
    3.5513    3.9652   -4.2664 H   0  0  0  0  0  0  0  0  0  0  0  0
    1.3804    2.5287   -4.6698 H   0  0  0  0  0  0  0  0  0  0  0  0
    4.8092    2.3869    2.1227 H   0  0  0  0  0  0  0  0  0  0  0  0
    3.4587    3.9886    3.7327 H   0  0  0  0  0  0  0  0  0  0  0  0
    1.0065    4.3686    2.8447 H   0  0  0  0  0  0  0  0  0  0  0  0
    5.2217    0.8502   -1.0004 H   0  0  0  0  0  0  0  0  0  0  0  0
    5.6006   -0.4260    1.4694 H   0  0  0  0  0  0  0  0  0  0  0  0
    5.6325   -1.4307    3.9006 H   0  0  0  0  0  0  0  0  0  0  0  0
    3.2146   -2.1238    4.6791 H   0  0  0  0  0  0  0  0  0  0  0  0
    1.5954   -2.1386   -1.7515 H   0  0  0  0  0  0  0  0  0  0  0  0
    3.0077   -3.5895   -3.4414 H   0  0  0  0  0  0  0  0  0  0  0  0
    5.5772   -3.0520   -3.2382 H   0  0  0  0  0  0  0  0  0  0  0  0
  1  2  1  0  0  0  0
  1 25  1  0  0  0  0
  2 20  1  0  0  0  0
  2 15  1  0  0  0  0
  2  3  1  0  0  0  0
  3 14  1  0  0  0  0
  3  9  1  0  0  0  0
  3  4  1  0  0  0  0
  4  5  2  0  0  0  0
  4  8  1  0  0  0  0
  5  6  1  0  0  0  0
  5 26  1  0  0  0  0
  6  7  2  0  0  0  0
  6 27  1  0  0  0  0
  7  8  1  0  0  0  0
  7 28  1  0  0  0  0
  9 10  2  0  0  0  0
  9 13  1  0  0  0  0
 10 11  1  0  0  0  0
 10 29  1  0  0  0  0
 11 12  2  0  0  0  0
 11 30  1  0  0  0  0
 12 13  1  0  0  0  0
 12 31  1  0  0  0  0
 14 32  1  0  0  0  0
 15 16  2  0  0  0  0
 15 19  1  0  0  0  0
 16 17  1  0  0  0  0
 16 33  1  0  0  0  0
 17 18  2  0  0  0  0
 17 34  1  0  0  0  0
 18 19  1  0  0  0  0
 18 35  1  0  0  0  0
 20 21  2  0  0  0  0
 20 24  1  0  0  0  0
 21 22  1  0  0  0  0
 21 36  1  0  0  0  0
 22 23  2  0  0  0  0
 22 37  1  0  0  0  0
 23 24  1  0  0  0  0
 23 38  1  0  0  0  0
M  END
$$$$