493215 493214
 OpenBabel01161410483D

 16 15  0  0  1  0  0  0  0  0999 V2000
    1.0095    0.0100    0.0429 C   0  0  0  0  0  0  0  0  0  0  0  0
    2.5354   -0.0490   -0.0216 C   0  0  3  0  0  0  0  0  0  0  0  0
    3.0365   -1.4975   -0.2166 C   0  0  3  0  0  0  0  0  0  0  0  0
    2.6064   -2.0301   -1.4716 O   0  0  0  0  0  0  0  0  0  0  0  0
    4.5518   -1.6443   -0.1056 C   0  0  0  0  0  0  0  0  0  0  0  0
    3.0991    1.0738   -1.3604 S   0  0  0  0  0  0  0  0  0  0  0  0
    0.6578    1.0302    0.2352 H   0  0  0  0  0  0  0  0  0  0  0  0
    0.6392   -0.6183    0.8610 H   0  0  0  0  0  0  0  0  0  0  0  0
    0.5413   -0.3453   -0.8822 H   0  0  0  0  0  0  0  0  0  0  0  0
    2.9393    0.3417    0.9191 H   0  0  0  0  0  0  0  0  0  0  0  0
    2.5846   -2.1271    0.5592 H   0  0  0  0  0  0  0  0  0  0  0  0
    3.1019   -1.5589   -2.1651 H   0  0  0  0  0  0  0  0  0  0  0  0
    5.0736   -1.1394   -0.9249 H   0  0  0  0  0  0  0  0  0  0  0  0
    4.8310   -2.7019   -0.1723 H   0  0  0  0  0  0  0  0  0  0  0  0
    4.9201   -1.2492    0.8459 H   0  0  0  0  0  0  0  0  0  0  0  0
    2.2782    0.6023   -2.3112 H   0  0  0  0  0  0  0  0  0  0  0  0
  1  2  1  0  0  0  0
  1  7  1  0  0  0  0
  1  8  1  0  0  0  0
  1  9  1  0  0  0  0
  2  6  1  0  0  0  0
  2  3  1  0  0  0  0
  2 10  1  0  0  0  0
  3  5  1  0  0  0  0
  3  4  1  0  0  0  0
  3 11  1  0  0  0  0
  4 12  1  0  0  0  0
  5 13  1  0  0  0  0
  5 14  1  0  0  0  0
  5 15  1  0  0  0  0
  6 16  1  0  0  0  0
M  END
$$$$