18595923 18595922
 OpenBabel01161410413D

 34 34  0  0  0  0  0  0  0  0999 V2000
    3.3292   -1.2957    0.9447 C   0  0  0  0  0  0  0  0  0  0  0  0
    2.8821   -0.1420    0.2505 O   0  0  0  0  0  0  0  0  0  0  0  0
    3.6342    1.3133    0.5599 Si  0  0  0  0  0  0  0  0  0  0  0  0
    2.9369    2.6593   -0.5829 C   0  0  0  0  0  0  0  0  0  0  0  0
    3.1674    2.4211   -2.0783 C   0  0  0  0  0  0  0  0  0  0  0  0
    2.5651    3.5539   -2.9067 C   0  0  0  0  0  0  0  0  0  0  0  0
    2.7571    3.3568   -4.3328 N   0  0  0  0  0  0  0  0  0  0  0  0
    1.8910    2.6930   -5.1610 C   0  0  0  0  0  0  0  0  0  0  0  0
    2.4047    2.7447   -6.4388 C   0  0  0  0  0  0  0  0  0  0  0  0
    3.6200    3.4673   -6.3760 C   0  0  0  0  0  0  0  0  0  0  0  0
    3.8132    3.8351   -5.0625 C   0  0  0  0  0  0  0  0  0  0  0  0
    3.3857    1.7129    2.1603 O   0  0  0  0  0  0  0  0  0  0  0  0
    2.0552    1.8584    2.6299 C   0  0  0  0  0  0  0  0  0  0  0  0
    5.2724    1.1263    0.3129 O   0  0  0  0  0  0  0  0  0  0  0  0
    6.1384    2.2030    0.6305 C   0  0  0  0  0  0  0  0  0  0  0  0
    2.8041   -2.1632    0.5322 H   0  0  0  0  0  0  0  0  0  0  0  0
    3.0832   -1.2310    2.0105 H   0  0  0  0  0  0  0  0  0  0  0  0
    4.4044   -1.4632    0.8137 H   0  0  0  0  0  0  0  0  0  0  0  0
    3.3861    3.6157   -0.2902 H   0  0  0  0  0  0  0  0  0  0  0  0
    1.8606    2.7392   -0.3899 H   0  0  0  0  0  0  0  0  0  0  0  0
    2.7220    1.4644   -2.3810 H   0  0  0  0  0  0  0  0  0  0  0  0
    4.2421    2.3413   -2.2879 H   0  0  0  0  0  0  0  0  0  0  0  0
    3.0202    4.5160   -2.6435 H   0  0  0  0  0  0  0  0  0  0  0  0
    1.4865    3.6385   -2.7299 H   0  0  0  0  0  0  0  0  0  0  0  0
    0.9859    2.2378   -4.7809 H   0  0  0  0  0  0  0  0  0  0  0  0
    1.9515    2.3096   -7.3195 H   0  0  0  0  0  0  0  0  0  0  0  0
    4.2828    3.6958   -7.2005 H   0  0  0  0  0  0  0  0  0  0  0  0
    4.6134    4.3939   -4.5952 H   0  0  0  0  0  0  0  0  0  0  0  0
    2.0958    2.0679    3.7035 H   0  0  0  0  0  0  0  0  0  0  0  0
    1.4735    0.9403    2.4895 H   0  0  0  0  0  0  0  0  0  0  0  0
    1.5539    2.7025    2.1435 H   0  0  0  0  0  0  0  0  0  0  0  0
    7.1648    1.8875    0.4174 H   0  0  0  0  0  0  0  0  0  0  0  0
    6.0816    2.4654    1.6930 H   0  0  0  0  0  0  0  0  0  0  0  0
    5.9244    3.0816    0.0113 H   0  0  0  0  0  0  0  0  0  0  0  0
  1  2  1  0  0  0  0
  1 16  1  0  0  0  0
  1 17  1  0  0  0  0
  1 18  1  0  0  0  0
  2  3  1  0  0  0  0
  3 14  1  0  0  0  0
  3 12  1  0  0  0  0
  3  4  1  0  0  0  0
  4  5  1  0  0  0  0
  4 19  1  0  0  0  0
  4 20  1  0  0  0  0
  5  6  1  0  0  0  0
  5 21  1  0  0  0  0
  5 22  1  0  0  0  0
  6  7  1  0  0  0  0
  6 23  1  0  0  0  0
  6 24  1  0  0  0  0
  7  8  1  0  0  0  0
  7 11  1  0  0  0  0
  8  9  2  0  0  0  0
  8 25  1  0  0  0  0
  9 10  1  0  0  0  0
  9 26  1  0  0  0  0
 10 11  2  0  0  0  0
 10 27  1  0  0  0  0
 11 28  1  0  0  0  0
 12 13  1  0  0  0  0
 13 29  1  0  0  0  0
 13 30  1  0  0  0  0
 13 31  1  0  0  0  0
 14 15  1  0  0  0  0
 15 32  1  0  0  0  0
 15 33  1  0  0  0  0
 15 34  1  0  0  0  0
M  END
$$$$