31239228 31239227
 OpenBabel01161410523D

 32 33  0  0  1  0  0  0  0  0999 V2000
    0.9722   -0.0071   -0.0039 O   0  0  0  0  0  0  0  0  0  0  0  0
    2.3722   -0.1234   -0.0476 C   0  0  3  0  0  0  0  0  0  0  0  0
    2.8173   -1.4647   -0.3528 N   0  0  0  0  0  0  0  0  0  0  0  0
    2.0701   -2.5309    0.2770 C   0  0  0  0  0  0  0  0  0  0  0  0
    3.0411   -1.5522   -1.7867 C   0  0  3  0  0  0  0  0  0  0  0  0
    2.9137   -0.1049   -2.2963 C   0  0  3  0  0  0  0  0  0  0  0  0
    2.8398    0.7558   -1.1127 N   0  0  0  0  0  0  0  0  0  0  0  0
    4.1585    1.2938   -0.7824 C   0  0  0  0  0  0  0  0  0  0  0  0
    1.6403   -0.0282   -3.0193 N   0  0  0  0  0  0  0  0  0  0  0  0
    1.0520   -1.3598   -2.9353 C   0  0  3  0  0  0  0  0  0  0  0  0
    2.0713   -2.3313   -2.5554 N   0  0  0  0  0  0  0  0  0  0  0  0
    2.7218   -3.0013   -3.6730 C   0  0  0  0  0  0  0  0  0  0  0  0
    0.2912   -1.7344   -4.0603 O   0  0  0  0  0  0  0  0  0  0  0  0
    1.8027    0.5267   -4.3503 C   0  0  0  0  0  0  0  0  0  0  0  0
    0.8096    0.5771   -0.7668 H   0  0  0  0  0  0  0  0  0  0  0  0
    2.7382    0.1856    0.9384 H   0  0  0  0  0  0  0  0  0  0  0  0
    2.0731   -2.4063    1.3655 H   0  0  0  0  0  0  0  0  0  0  0  0
    2.5397   -3.5001    0.0752 H   0  0  0  0  0  0  0  0  0  0  0  0
    1.0263   -2.5834   -0.0503 H   0  0  0  0  0  0  0  0  0  0  0  0
    4.0667   -1.9184   -1.9243 H   0  0  0  0  0  0  0  0  0  0  0  0
    3.7602    0.1437   -2.9516 H   0  0  0  0  0  0  0  0  0  0  0  0
    4.1023    1.9191    0.1159 H   0  0  0  0  0  0  0  0  0  0  0  0
    4.5143    1.9444   -1.5895 H   0  0  0  0  0  0  0  0  0  0  0  0
    4.9117    0.5152   -0.6138 H   0  0  0  0  0  0  0  0  0  0  0  0
    0.3245   -1.3313   -2.1175 H   0  0  0  0  0  0  0  0  0  0  0  0
    2.0083   -3.6204   -4.2279 H   0  0  0  0  0  0  0  0  0  0  0  0
    3.4918   -3.6913   -3.3078 H   0  0  0  0  0  0  0  0  0  0  0  0
    3.1979   -2.3054   -4.3723 H   0  0  0  0  0  0  0  0  0  0  0  0
    0.9010   -1.7639   -4.8057 H   0  0  0  0  0  0  0  0  0  0  0  0
    2.2427    1.5290   -4.2955 H   0  0  0  0  0  0  0  0  0  0  0  0
    0.8329    0.6474   -4.8448 H   0  0  0  0  0  0  0  0  0  0  0  0
    2.4450   -0.0884   -4.9897 H   0  0  0  0  0  0  0  0  0  0  0  0
  1  2  1  0  0  0  0
  1 15  1  0  0  0  0
  2  7  1  0  0  0  0
  2  3  1  0  0  0  0
  2 16  1  0  0  0  0
  3  5  1  0  0  0  0
  3  4  1  0  0  0  0
  4 17  1  0  0  0  0
  4 18  1  0  0  0  0
  4 19  1  0  0  0  0
  5  6  1  0  0  0  0
  5 11  1  0  0  0  0
  5 20  1  0  0  0  0
  6  7  1  0  0  0  0
  6  9  1  0  0  0  0
  6 21  1  0  0  0  0
  7  8  1  0  0  0  0
  8 22  1  0  0  0  0
  8 23  1  0  0  0  0
  8 24  1  0  0  0  0
  9 10  1  0  0  0  0
  9 14  1  0  0  0  0
 10 11  1  0  0  0  0
 10 13  1  0  0  0  0
 10 25  1  0  0  0  0
 11 12  1  0  0  0  0
 12 26  1  0  0  0  0
 12 27  1  0  0  0  0
 12 28  1  0  0  0  0
 13 29  1  0  0  0  0
 14 30  1  0  0  0  0
 14 31  1  0  0  0  0
 14 32  1  0  0  0  0
M  END
$$$$