29522621 29522620
 OpenBabel01161410063D

 23 23  0  0  1  0  0  0  0  0999 V2000
    0.9196    0.0513    0.1294 O   0  0  0  0  0  0  0  0  0  0  0  0
    2.3464    0.0675    0.0410 C   0  0  3  0  0  0  0  0  0  0  0  0
    2.8014   -1.3468   -0.3365 C   0  0  0  0  0  0  0  0  0  0  0  0
    2.3976   -1.7172   -1.7635 C   0  0  0  0  0  0  0  0  0  0  0  0
    2.8985   -0.6969   -2.7800 C   0  0  0  0  0  0  0  0  0  0  0  0
    2.4708    0.7276   -2.4221 C   0  0  0  0  0  0  0  0  0  0  0  0
    2.8441    1.1247   -0.9806 C   0  0  3  0  0  0  0  0  0  0  0  0
    2.2750    2.5128   -0.6694 C   0  0  0  0  0  0  0  0  0  0  0  0
    4.2698    1.2578   -0.8770 O   0  0  0  0  0  0  0  0  0  0  0  0
    0.6502    0.8362    0.6375 H   0  0  0  0  0  0  0  0  0  0  0  0
    2.7414    0.2933    1.0391 H   0  0  0  0  0  0  0  0  0  0  0  0
    2.3534   -2.0749    0.3502 H   0  0  0  0  0  0  0  0  0  0  0  0
    3.8891   -1.4307   -0.2321 H   0  0  0  0  0  0  0  0  0  0  0  0
    2.7962   -2.7078   -2.0112 H   0  0  0  0  0  0  0  0  0  0  0  0
    1.3050   -1.7918   -1.8302 H   0  0  0  0  0  0  0  0  0  0  0  0
    3.9908   -0.7533   -2.8470 H   0  0  0  0  0  0  0  0  0  0  0  0
    2.5135   -0.9528   -3.7737 H   0  0  0  0  0  0  0  0  0  0  0  0
    2.9435    1.4156   -3.1340 H   0  0  0  0  0  0  0  0  0  0  0  0
    1.3853    0.8122   -2.5615 H   0  0  0  0  0  0  0  0  0  0  0  0
    1.1874    2.5510   -0.7849 H   0  0  0  0  0  0  0  0  0  0  0  0
    2.7142    3.2694   -1.3304 H   0  0  0  0  0  0  0  0  0  0  0  0
    2.5267    2.8137    0.3540 H   0  0  0  0  0  0  0  0  0  0  0  0
    4.6867    0.4381   -1.1901 H   0  0  0  0  0  0  0  0  0  0  0  0
  1  2  1  0  0  0  0
  1 10  1  0  0  0  0
  2  7  1  0  0  0  0
  2  3  1  0  0  0  0
  2 11  1  0  0  0  0
  3  4  1  0  0  0  0
  3 12  1  0  0  0  0
  3 13  1  0  0  0  0
  4  5  1  0  0  0  0
  4 14  1  0  0  0  0
  4 15  1  0  0  0  0
  5  6  1  0  0  0  0
  5 16  1  0  0  0  0
  5 17  1  0  0  0  0
  6  7  1  0  0  0  0
  6 18  1  0  0  0  0
  6 19  1  0  0  0  0
  7  9  1  0  0  0  0
  7  8  1  0  0  0  0
  8 20  1  0  0  0  0
  8 21  1  0  0  0  0
  8 22  1  0  0  0  0
  9 23  1  0  0  0  0
M  END
$$$$