44385294 44385293
 OpenBabel01161410393D

 24 24  0  0  1  0  0  0  0  0999 V2000
    3.7892   -1.1436    0.9394 C   0  0  0  0  0  0  0  0  0  0  0  0
    2.6332   -0.0724    0.0479 S   0  0  0  0  0  0  0  0  0  0  0  0
    3.4101   -0.0930   -1.6272 C   0  0  3  0  0  0  0  0  0  0  0  0
    3.1650   -1.4561   -2.2891 C   0  0  0  0  0  0  0  0  0  0  0  0
    3.6159   -1.5685   -3.7482 C   0  0  0  0  0  0  0  0  0  0  0  0
    2.7418   -0.7486   -4.6928 C   0  0  0  0  0  0  0  0  0  0  0  0
    3.1607    0.7137   -4.8367 C   0  0  0  0  0  0  0  0  0  0  0  0
    3.6362    1.3957   -3.6412 N   0  0  0  0  0  0  0  0  0  0  0  0
    2.8693    1.1146   -2.4246 C   0  0  0  0  0  0  0  0  0  0  0  0
    3.5331   -1.1338    2.0020 H   0  0  0  0  0  0  0  0  0  0  0  0
    4.8136   -0.7801    0.8288 H   0  0  0  0  0  0  0  0  0  0  0  0
    3.7189   -2.1731    0.5824 H   0  0  0  0  0  0  0  0  0  0  0  0
    4.4880    0.0487   -1.4801 H   0  0  0  0  0  0  0  0  0  0  0  0
    2.0997   -1.7183   -2.2337 H   0  0  0  0  0  0  0  0  0  0  0  0
    3.7009   -2.2303   -1.7261 H   0  0  0  0  0  0  0  0  0  0  0  0
    4.6749   -1.3055   -3.8531 H   0  0  0  0  0  0  0  0  0  0  0  0
    3.5268   -2.6234   -4.0374 H   0  0  0  0  0  0  0  0  0  0  0  0
    2.7798   -1.2042   -5.6902 H   0  0  0  0  0  0  0  0  0  0  0  0
    1.6935   -0.8052   -4.3753 H   0  0  0  0  0  0  0  0  0  0  0  0
    3.9564    0.7791   -5.5893 H   0  0  0  0  0  0  0  0  0  0  0  0
    2.3182    1.2786   -5.2547 H   0  0  0  0  0  0  0  0  0  0  0  0
    4.6233    1.1937   -3.4882 H   0  0  0  0  0  0  0  0  0  0  0  0
    2.9640    2.0154   -1.8048 H   0  0  0  0  0  0  0  0  0  0  0  0
    1.7990    1.0107   -2.6442 H   0  0  0  0  0  0  0  0  0  0  0  0
  1  2  1  0  0  0  0
  1 10  1  0  0  0  0
  1 11  1  0  0  0  0
  1 12  1  0  0  0  0
  2  3  1  0  0  0  0
  3  9  1  0  0  0  0
  3  4  1  0  0  0  0
  3 13  1  0  0  0  0
  4  5  1  0  0  0  0
  4 14  1  0  0  0  0
  4 15  1  0  0  0  0
  5  6  1  0  0  0  0
  5 16  1  0  0  0  0
  5 17  1  0  0  0  0
  6  7  1  0  0  0  0
  6 18  1  0  0  0  0
  6 19  1  0  0  0  0
  7  8  1  0  0  0  0
  7 20  1  0  0  0  0
  7 21  1  0  0  0  0
  8  9  1  0  0  0  0
  8 22  1  0  0  0  0
  9 23  1  0  0  0  0
  9 24  1  0  0  0  0
M  END
$$$$