46020391 46020390
 OpenBabel01161410063D

 24 24  0  0  1  0  0  0  0  0999 V2000
    1.5046   -0.8123   -0.5754 N   0  0  0  0  0  0  0  0  0  0  0  0
    2.7153    0.0086   -0.4582 C   0  0  3  0  0  0  0  0  0  0  0  0
    2.9463    0.8021   -1.7333 C   0  0  0  0  0  0  0  0  0  0  0  0
    4.1726    0.7084   -2.4104 C   0  0  0  0  0  0  0  0  0  0  0  0
    4.4060    1.4553   -3.5669 C   0  0  0  0  0  0  0  0  0  0  0  0
    3.4193    2.3074   -4.0598 C   0  0  0  0  0  0  0  0  0  0  0  0
    2.1967    2.4089   -3.4013 C   0  0  0  0  0  0  0  0  0  0  0  0
    1.9601    1.6600   -2.2475 C   0  0  0  0  0  0  0  0  0  0  0  0
    2.6497    0.9604    0.7615 C   0  0  0  0  0  0  0  0  0  0  0  0
    2.4746    0.1399    2.3869 S   0  0  0  0  0  0  0  0  0  0  0  0
    3.9879   -0.8126    2.3762 C   0  0  0  0  0  0  0  0  0  0  0  0
    4.3893   -1.1124    3.6315 F   0  0  0  0  0  0  0  0  0  0  0  0
    3.8201   -1.9805    1.7126 F   0  0  0  0  0  0  0  0  0  0  0  0
    5.0003   -0.1468    1.7728 F   0  0  0  0  0  0  0  0  0  0  0  0
    1.4014   -1.3890    0.2589 H   0  0  0  0  0  0  0  0  0  0  0  0
    1.6160   -1.4529   -1.3610 H   0  0  0  0  0  0  0  0  0  0  0  0
    3.5606   -0.6779   -0.3342 H   0  0  0  0  0  0  0  0  0  0  0  0
    4.9593    0.0525   -2.0429 H   0  0  0  0  0  0  0  0  0  0  0  0
    5.3589    1.3739   -4.0834 H   0  0  0  0  0  0  0  0  0  0  0  0
    3.6030    2.8904   -4.9584 H   0  0  0  0  0  0  0  0  0  0  0  0
    1.4241    3.0697   -3.7858 H   0  0  0  0  0  0  0  0  0  0  0  0
    0.9956    1.7422   -1.7492 H   0  0  0  0  0  0  0  0  0  0  0  0
    1.7916    1.6367    0.6667 H   0  0  0  0  0  0  0  0  0  0  0  0
    3.5388    1.6008    0.7961 H   0  0  0  0  0  0  0  0  0  0  0  0
  1  2  1  0  0  0  0
  1 15  1  0  0  0  0
  1 16  1  0  0  0  0
  2  9  1  0  0  0  0
  2  3  1  0  0  0  0
  2 17  1  0  0  0  0
  3  4  2  0  0  0  0
  3  8  1  0  0  0  0
  4  5  1  0  0  0  0
  4 18  1  0  0  0  0
  5  6  2  0  0  0  0
  5 19  1  0  0  0  0
  6  7  1  0  0  0  0
  6 20  1  0  0  0  0
  7  8  2  0  0  0  0
  7 21  1  0  0  0  0
  8 22  1  0  0  0  0
  9 10  1  0  0  0  0
  9 23  1  0  0  0  0
  9 24  1  0  0  0  0
 10 11  1  0  0  0  0
 11 14  1  0  0  0  0
 11 13  1  0  0  0  0
 11 12  1  0  0  0  0
M  END
$$$$