46020942 46020941
 OpenBabel01161410563D

 17 17  0  0  1  0  0  0  0  0999 V2000
    0.9607    0.1992   -0.0532 C   0  0  0  0  0  0  0  0  0  0  0  0
    2.4429   -0.1229    0.0796 C   0  0  3  0  0  0  0  0  0  0  0  0
    3.0352   -0.6027   -1.2241 C   0  0  0  0  0  0  0  0  0  0  0  0
    3.8107    0.2762   -1.9321 N   0  0  0  0  0  0  0  0  0  0  0  0
    4.3103   -0.2027   -3.0949 C   0  0  0  0  0  0  0  0  0  0  0  0
    4.0549   -1.4909   -3.5381 C   0  0  0  0  0  0  0  0  0  0  0  0
    3.2898   -2.3646   -2.8444 N   0  0  0  0  0  0  0  0  0  0  0  0
    2.7875   -1.8938   -1.6811 C   0  0  0  0  0  0  0  0  0  0  0  0
    2.0230   -2.7224   -0.9548 F   0  0  0  0  0  0  0  0  0  0  0  0
    3.1085    1.0729    0.5154 O   0  0  0  0  0  0  0  0  0  0  0  0
    0.5667    0.5783    0.8958 H   0  0  0  0  0  0  0  0  0  0  0  0
    0.3777   -0.6795   -0.3444 H   0  0  0  0  0  0  0  0  0  0  0  0
    0.7942    0.9844   -0.7993 H   0  0  0  0  0  0  0  0  0  0  0  0
    2.6021   -0.8766    0.8587 H   0  0  0  0  0  0  0  0  0  0  0  0
    4.9271    0.4815   -3.6679 H   0  0  0  0  0  0  0  0  0  0  0  0
    4.4640   -1.8580   -4.4735 H   0  0  0  0  0  0  0  0  0  0  0  0
    3.6691    1.3493   -0.2393 H   0  0  0  0  0  0  0  0  0  0  0  0
  1  2  1  0  0  0  0
  1 11  1  0  0  0  0
  1 12  1  0  0  0  0
  1 13  1  0  0  0  0
  2 10  1  0  0  0  0
  2  3  1  0  0  0  0
  2 14  1  0  0  0  0
  3  4  2  0  0  0  0
  3  8  1  0  0  0  0
  4  5  1  0  0  0  0
  5  6  2  0  0  0  0
  5 15  1  0  0  0  0
  6  7  1  0  0  0  0
  6 16  1  0  0  0  0
  7  8  2  0  0  0  0
  8  9  1  0  0  0  0
 10 17  1  0  0  0  0
M  END
$$$$