2799656 2799655
 OpenBabel01161410203D

 20 20  0  0  0  0  0  0  0  0999 V2000
    2.6212   -1.4085   -1.9779 Cl  0  0  0  0  0  0  0  0  0  0  0  0
    3.1835   -0.3445   -0.2577 P   0  0  0  0  0  0  0  0  0  0  0  0
    3.7034    1.2926   -0.9773 C   0  0  0  0  0  0  0  0  0  0  0  0
    2.6753    2.0553   -1.8261 C   0  0  0  0  0  0  0  0  0  0  0  0
    1.7755    3.0289   -1.0642 C   0  0  0  0  0  0  0  0  0  0  0  0
    2.5497    3.9065   -0.0908 C   0  0  0  0  0  0  0  0  0  0  0  0
    3.4112    3.0747    0.8495 C   0  0  0  0  0  0  0  0  0  0  0  0
    4.3810    2.1916    0.0708 C   0  0  0  0  0  0  0  0  0  0  0  0
    1.2876   -0.0141    0.5590 Cl  0  0  0  0  0  0  0  0  0  0  0  0
    4.5038    0.9871   -1.6676 H   0  0  0  0  0  0  0  0  0  0  0  0
    2.0513    1.3804   -2.4213 H   0  0  0  0  0  0  0  0  0  0  0  0
    3.2395    2.6531   -2.5564 H   0  0  0  0  0  0  0  0  0  0  0  0
    1.2487    3.6670   -1.7835 H   0  0  0  0  0  0  0  0  0  0  0  0
    0.9968    2.4869   -0.5222 H   0  0  0  0  0  0  0  0  0  0  0  0
    3.1867    4.6018   -0.6529 H   0  0  0  0  0  0  0  0  0  0  0  0
    1.8504    4.5174    0.4912 H   0  0  0  0  0  0  0  0  0  0  0  0
    3.9786    3.7432    1.5073 H   0  0  0  0  0  0  0  0  0  0  0  0
    2.7750    2.4635    1.4980 H   0  0  0  0  0  0  0  0  0  0  0  0
    5.0850    2.8520   -0.4543 H   0  0  0  0  0  0  0  0  0  0  0  0
    4.9875    1.6062    0.7728 H   0  0  0  0  0  0  0  0  0  0  0  0
  1  2  1  0  0  0  0
  2  9  1  0  0  0  0
  2  3  1  0  0  0  0
  3  8  1  0  0  0  0
  3  4  1  0  0  0  0
  3 10  1  0  0  0  0
  4  5  1  0  0  0  0
  4 11  1  0  0  0  0
  4 12  1  0  0  0  0
  5  6  1  0  0  0  0
  5 13  1  0  0  0  0
  5 14  1  0  0  0  0
  6  7  1  0  0  0  0
  6 15  1  0  0  0  0
  6 16  1  0  0  0  0
  7  8  1  0  0  0  0
  7 17  1  0  0  0  0
  7 18  1  0  0  0  0
  8 19  1  0  0  0  0
  8 20  1  0  0  0  0
M  END
$$$$