475741 475740
 OpenBabel01161410223D

  7  7  0  0  0  0  0  0  0  0999 V2000
   -0.0332    1.0225    0.0000 S   0  0  0  0  0  0  0  0  0  0  0  0
   -0.7274   -0.5554   -0.0701 C   0  0  0  0  0  0  0  0  0  0  0  0
    0.7613   -0.5077    0.0703 C   0  0  0  0  0  0  0  0  0  0  0  0
   -1.1461   -0.8417   -1.0268 H   0  0  0  0  0  0  0  0  0  0  0  0
   -1.3172   -0.8472    0.7897 H   0  0  0  0  0  0  0  0  0  0  0  0
    1.1973   -0.7662    1.0267 H   0  0  0  0  0  0  0  0  0  0  0  0
    1.3682   -0.7607   -0.7894 H   0  0  0  0  0  0  0  0  0  0  0  0
  1  3  1  0  0  0  0
  1  2  1  0  0  0  0
  2  3  1  0  0  0  0
  2  4  1  0  0  0  0
  2  5  1  0  0  0  0
  3  6  1  0  0  0  0
  3  7  1  0  0  0  0
M  END
$$$$