760327 760326
 OpenBabel01161410443D

 50 52  0  0  0  0  0  0  0  0999 V2000
    0.3753   -0.0235   -0.0335 C   0  0  0  0  0  0  0  0  0  0  0  0
    1.8639    0.0846    0.1190 C   0  0  0  0  0  0  0  0  0  0  0  0
    2.5076    1.3000   -0.1392 C   0  0  0  0  0  0  0  0  0  0  0  0
    3.8938    1.4437    0.0327 C   0  0  0  0  0  0  0  0  0  0  0  0
    4.6211    2.7512   -0.2301 C   0  0  0  0  0  0  0  0  0  0  0  0
    3.7653    3.9343   -0.6345 C   0  0  0  0  0  0  0  0  0  0  0  0
    3.2572    4.7742    0.3753 C   0  0  0  0  0  0  0  0  0  0  0  0
    2.4276    5.8619    0.0696 C   0  0  0  0  0  0  0  0  0  0  0  0
    1.9053    6.7482    1.1607 C   0  0  0  0  0  0  0  0  0  0  0  0
    2.1343    6.1366   -1.2687 C   0  0  0  0  0  0  0  0  0  0  0  0
    2.6273    5.3120   -2.2803 C   0  0  0  0  0  0  0  0  0  0  0  0
    3.4200    4.2113   -1.9621 C   0  0  0  0  0  0  0  0  0  0  0  0
    3.8079    3.4286   -3.0118 O   0  0  0  0  0  0  0  0  0  0  0  0
    4.6256    0.3285    0.4794 C   0  0  0  0  0  0  0  0  0  0  0  0
    4.0088   -0.9059    0.7399 C   0  0  0  0  0  0  0  0  0  0  0  0
    2.6173   -1.0035    0.5700 C   0  0  0  0  0  0  0  0  0  0  0  0
    4.7745   -2.1370    1.1730 C   0  0  0  0  0  0  0  0  0  0  0  0
    4.9492   -2.2746    2.6684 C   0  0  0  0  0  0  0  0  0  0  0  0
    3.9652   -2.9301    3.4296 C   0  0  0  0  0  0  0  0  0  0  0  0
    4.1044   -3.0889    4.8157 C   0  0  0  0  0  0  0  0  0  0  0  0
    3.0663   -3.8269    5.6094 C   0  0  0  0  0  0  0  0  0  0  0  0
    5.2538   -2.5995    5.4448 C   0  0  0  0  0  0  0  0  0  0  0  0
    6.2339   -1.9351    4.7070 C   0  0  0  0  0  0  0  0  0  0  0  0
    6.0740   -1.7729    3.3315 C   0  0  0  0  0  0  0  0  0  0  0  0
    7.0297   -1.1140    2.6059 O   0  0  0  0  0  0  0  0  0  0  0  0
    5.9752    0.4992    0.6434 O   0  0  0  0  0  0  0  0  0  0  0  0
    0.0718   -1.0597   -0.2152 H   0  0  0  0  0  0  0  0  0  0  0  0
    0.0288    0.5703   -0.8863 H   0  0  0  0  0  0  0  0  0  0  0  0
   -0.1205    0.3350    0.8740 H   0  0  0  0  0  0  0  0  0  0  0  0
    1.9016    2.1416   -0.4715 H   0  0  0  0  0  0  0  0  0  0  0  0
    5.3863    2.5872   -1.0001 H   0  0  0  0  0  0  0  0  0  0  0  0
    5.1737    3.0286    0.6785 H   0  0  0  0  0  0  0  0  0  0  0  0
    3.5019    4.5652    1.4157 H   0  0  0  0  0  0  0  0  0  0  0  0
    1.8058    6.1950    2.1010 H   0  0  0  0  0  0  0  0  0  0  0  0
    0.9121    7.1334    0.9063 H   0  0  0  0  0  0  0  0  0  0  0  0
    2.5851    7.5913    1.3178 H   0  0  0  0  0  0  0  0  0  0  0  0
    1.5106    6.9874   -1.5336 H   0  0  0  0  0  0  0  0  0  0  0  0
    2.3804    5.5182   -3.3181 H   0  0  0  0  0  0  0  0  0  0  0  0
    4.1035    2.5679   -2.6714 H   0  0  0  0  0  0  0  0  0  0  0  0
    2.1143   -1.9452    0.7816 H   0  0  0  0  0  0  0  0  0  0  0  0
    5.7475   -2.1735    0.6663 H   0  0  0  0  0  0  0  0  0  0  0  0
    4.2612   -3.0327    0.7939 H   0  0  0  0  0  0  0  0  0  0  0  0
    3.0806   -3.3261    2.9338 H   0  0  0  0  0  0  0  0  0  0  0  0
    3.3751   -4.8668    5.7528 H   0  0  0  0  0  0  0  0  0  0  0  0
    2.0973   -3.8161    5.1000 H   0  0  0  0  0  0  0  0  0  0  0  0
    2.9244   -3.3585    6.5889 H   0  0  0  0  0  0  0  0  0  0  0  0
    5.3890   -2.7303    6.5161 H   0  0  0  0  0  0  0  0  0  0  0  0
    7.1101   -1.5540    5.2225 H   0  0  0  0  0  0  0  0  0  0  0  0
    7.7707   -0.9055    3.2041 H   0  0  0  0  0  0  0  0  0  0  0  0
    6.2988   -0.1662    1.2843 H   0  0  0  0  0  0  0  0  0  0  0  0
  1  2  1  0  0  0  0
  1 27  1  0  0  0  0
  1 28  1  0  0  0  0
  1 29  1  0  0  0  0
  2 16  1  0  0  0  0
  2  3  2  0  0  0  0
  3  4  1  0  0  0  0
  3 30  1  0  0  0  0
  4 14  2  0  0  0  0
  4  5  1  0  0  0  0
  5  6  1  0  0  0  0
  5 31  1  0  0  0  0
  5 32  1  0  0  0  0
  6  7  2  0  0  0  0
  6 12  1  0  0  0  0
  7  8  1  0  0  0  0
  7 33  1  0  0  0  0
  8 10  2  0  0  0  0
  8  9  1  0  0  0  0
  9 34  1  0  0  0  0
  9 35  1  0  0  0  0
  9 36  1  0  0  0  0
 10 11  1  0  0  0  0
 10 37  1  0  0  0  0
 11 12  2  0  0  0  0
 11 38  1  0  0  0  0
 12 13  1  0  0  0  0
 13 39  1  0  0  0  0
 14 15  1  0  0  0  0
 14 26  1  0  0  0  0
 15 16  2  0  0  0  0
 15 17  1  0  0  0  0
 16 40  1  0  0  0  0
 17 18  1  0  0  0  0
 17 41  1  0  0  0  0
 17 42  1  0  0  0  0
 18 19  2  0  0  0  0
 18 24  1  0  0  0  0
 19 20  1  0  0  0  0
 19 43  1  0  0  0  0
 20 22  2  0  0  0  0
 20 21  1  0  0  0  0
 21 44  1  0  0  0  0
 21 45  1  0  0  0  0
 21 46  1  0  0  0  0
 22 23  1  0  0  0  0
 22 47  1  0  0  0  0
 23 24  2  0  0  0  0
 23 48  1  0  0  0  0
 24 25  1  0  0  0  0
 25 49  1  0  0  0  0
 26 50  1  0  0  0  0
M  END
$$$$