46440837 46440836
 OpenBabel01161410153D

 22 22  0  0  0  0  0  0  0  0999 V2000
    0.8805    2.4826   -0.1702 O   0  0  0  0  0  0  0  0  0  0  0  0
    2.2926    2.5234   -0.5163 N   0  0  0  0  0  0  0  0  0  0  0  0
    2.8729    1.3082    0.0668 C   0  0  0  0  0  0  0  0  0  0  0  0
    4.3710    1.2671   -0.1185 C   0  0  0  0  0  0  0  0  0  0  0  0
    4.9363    1.3327   -1.3990 C   0  0  0  0  0  0  0  0  0  0  0  0
    6.3196    1.2709   -1.5663 C   0  0  0  0  0  0  0  0  0  0  0  0
    7.1574    1.1340   -0.4571 C   0  0  0  0  0  0  0  0  0  0  0  0
    6.6131    1.0585    0.8250 C   0  0  0  0  0  0  0  0  0  0  0  0
    5.2248    1.1281    0.9864 C   0  0  0  0  0  0  0  0  0  0  0  0
    7.3173    0.9178    1.9901 O   0  0  0  0  0  0  0  0  0  0  0  0
    8.7271    0.7738    1.8735 C   0  0  0  0  0  0  0  0  0  0  0  0
    0.4583    2.5977   -1.0443 H   0  0  0  0  0  0  0  0  0  0  0  0
    2.6313    3.3252    0.0224 H   0  0  0  0  0  0  0  0  0  0  0  0
    2.4410    0.4199   -0.4096 H   0  0  0  0  0  0  0  0  0  0  0  0
    2.6259    1.2585    1.1345 H   0  0  0  0  0  0  0  0  0  0  0  0
    4.2943    1.4380   -2.2714 H   0  0  0  0  0  0  0  0  0  0  0  0
    6.7457    1.3291   -2.5647 H   0  0  0  0  0  0  0  0  0  0  0  0
    8.2270    1.0901   -0.6292 H   0  0  0  0  0  0  0  0  0  0  0  0
    4.8118    1.0670    1.9913 H   0  0  0  0  0  0  0  0  0  0  0  0
    9.1336    0.6396    2.8805 H   0  0  0  0  0  0  0  0  0  0  0  0
    9.1814    1.6747    1.4485 H   0  0  0  0  0  0  0  0  0  0  0  0
    8.9876   -0.1148    1.2890 H   0  0  0  0  0  0  0  0  0  0  0  0
  1  2  1  0  0  0  0
  1 12  1  0  0  0  0
  2  3  1  0  0  0  0
  2 13  1  0  0  0  0
  3  4  1  0  0  0  0
  3 14  1  0  0  0  0
  3 15  1  0  0  0  0
  4  5  2  0  0  0  0
  4  9  1  0  0  0  0
  5  6  1  0  0  0  0
  5 16  1  0  0  0  0
  6  7  2  0  0  0  0
  6 17  1  0  0  0  0
  7  8  1  0  0  0  0
  7 18  1  0  0  0  0
  8  9  2  0  0  0  0
  8 10  1  0  0  0  0
  9 19  1  0  0  0  0
 10 11  1  0  0  0  0
 11 20  1  0  0  0  0
 11 21  1  0  0  0  0
 11 22  1  0  0  0  0
M  END
$$$$