29703639 29703638
 OpenBabel01161410093D

 26 27  0  0  1  0  0  0  0  0999 V2000
    2.4653    0.4494   -0.0835 N   0  0  0  0  0  0  0  0  0  0  0  0
    2.9845   -0.7691    0.5509 C   0  0  3  0  0  0  0  0  0  0  0  0
    2.3572   -1.0338    1.9134 C   0  0  0  0  0  0  0  0  0  0  0  0
    0.9836   -1.2259    2.0555 C   0  0  0  0  0  0  0  0  0  0  0  0
    0.4633   -1.4605    3.3236 C   0  0  0  0  0  0  0  0  0  0  0  0
    1.3202   -1.4876    4.4171 C   0  0  0  0  0  0  0  0  0  0  0  0
    2.6781   -1.2746    4.2092 C   0  0  0  0  0  0  0  0  0  0  0  0
    3.2011   -1.0483    2.9811 N   0  0  0  0  0  0  0  0  0  0  0  0
    3.6287   -1.2865    5.3679 C   0  0  0  0  0  0  0  0  0  0  0  0
    2.7381   -1.9095   -0.4035 C   0  0  0  0  0  0  0  0  0  0  0  0
    3.8154   -2.3381   -1.3743 C   0  0  0  0  0  0  0  0  0  0  0  0
    3.4429   -3.2339   -0.2271 C   0  0  0  0  0  0  0  0  0  0  0  0
    3.0251    0.6322   -0.9141 H   0  0  0  0  0  0  0  0  0  0  0  0
    2.6516    1.2236    0.5544 H   0  0  0  0  0  0  0  0  0  0  0  0
    4.0645   -0.6363    0.6975 H   0  0  0  0  0  0  0  0  0  0  0  0
    0.3291   -1.1871    1.1913 H   0  0  0  0  0  0  0  0  0  0  0  0
   -0.6031   -1.6163    3.4566 H   0  0  0  0  0  0  0  0  0  0  0  0
    0.9316   -1.6679    5.4145 H   0  0  0  0  0  0  0  0  0  0  0  0
    4.6533   -1.0929    5.0328 H   0  0  0  0  0  0  0  0  0  0  0  0
    3.6107   -2.2622    5.8624 H   0  0  0  0  0  0  0  0  0  0  0  0
    3.3552   -0.5109    6.0896 H   0  0  0  0  0  0  0  0  0  0  0  0
    1.7117   -1.9458   -0.7558 H   0  0  0  0  0  0  0  0  0  0  0  0
    4.7824   -1.8488   -1.3349 H   0  0  0  0  0  0  0  0  0  0  0  0
    3.5076   -2.6340   -2.3709 H   0  0  0  0  0  0  0  0  0  0  0  0
    2.8812   -4.1354   -0.4435 H   0  0  0  0  0  0  0  0  0  0  0  0
    4.1450   -3.3376    0.5938 H   0  0  0  0  0  0  0  0  0  0  0  0
  1  2  1  0  0  0  0
  1 13  1  0  0  0  0
  1 14  1  0  0  0  0
  2 10  1  0  0  0  0
  2  3  1  0  0  0  0
  2 15  1  0  0  0  0
  3  8  1  0  0  0  0
  3  4  2  0  0  0  0
  4  5  1  0  0  0  0
  4 16  1  0  0  0  0
  5  6  2  0  0  0  0
  5 17  1  0  0  0  0
  6  7  1  0  0  0  0
  6 18  1  0  0  0  0
  7  8  2  0  0  0  0
  7  9  1  0  0  0  0
  9 19  1  0  0  0  0
  9 20  1  0  0  0  0
  9 21  1  0  0  0  0
 10 12  1  0  0  0  0
 10 11  1  0  0  0  0
 10 22  1  0  0  0  0
 11 12  1  0  0  0  0
 11 23  1  0  0  0  0
 11 24  1  0  0  0  0
 12 25  1  0  0  0  0
 12 26  1  0  0  0  0
M  END
$$$$