503010 503009
 OpenBabel01161410433D

 24 23  0  0  0  0  0  0  0  0999 V2000
    1.0095    0.3587    0.0016 C   0  0  0  0  0  0  0  0  0  0  0  0
    2.5179    0.1533    0.0235 C   0  0  0  0  0  0  0  0  0  0  0  0
    3.1029   -1.6097    0.4425 Si  0  0  0  0  0  0  0  0  0  0  0  0
    2.4328   -2.1030    2.1573 C   0  0  0  0  0  0  0  0  0  0  0  0
    2.8780   -1.2108    3.3074 C   0  0  0  0  0  0  0  0  0  0  0  0
    2.3827   -2.8254   -0.8400 C   0  0  0  0  0  0  0  0  0  0  0  0
    2.7917   -2.5616   -2.2821 C   0  0  0  0  0  0  0  0  0  0  0  0
    4.7737   -1.6791    0.4264 O   0  0  0  0  0  0  0  0  0  0  0  0
    0.7761    1.3985   -0.2487 H   0  0  0  0  0  0  0  0  0  0  0  0
    0.5615    0.1395    0.9760 H   0  0  0  0  0  0  0  0  0  0  0  0
    0.5289   -0.2820   -0.7446 H   0  0  0  0  0  0  0  0  0  0  0  0
    2.9624    0.8393    0.7544 H   0  0  0  0  0  0  0  0  0  0  0  0
    2.9307    0.4225   -0.9560 H   0  0  0  0  0  0  0  0  0  0  0  0
    2.7523   -3.1318    2.3579 H   0  0  0  0  0  0  0  0  0  0  0  0
    1.3384   -2.1101    2.1088 H   0  0  0  0  0  0  0  0  0  0  0  0
    3.9691   -1.1949    3.4030 H   0  0  0  0  0  0  0  0  0  0  0  0
    2.4625   -1.5785    4.2514 H   0  0  0  0  0  0  0  0  0  0  0  0
    2.5356   -0.1794    3.1698 H   0  0  0  0  0  0  0  0  0  0  0  0
    1.2907   -2.7960   -0.7632 H   0  0  0  0  0  0  0  0  0  0  0  0
    2.6986   -3.8350   -0.5569 H   0  0  0  0  0  0  0  0  0  0  0  0
    2.4560   -1.5751   -2.6205 H   0  0  0  0  0  0  0  0  0  0  0  0
    2.3454   -3.3121   -2.9431 H   0  0  0  0  0  0  0  0  0  0  0  0
    3.8795   -2.6089   -2.4054 H   0  0  0  0  0  0  0  0  0  0  0  0
    5.2151   -1.4508   -0.4079 H   0  0  0  0  0  0  0  0  0  0  0  0
  1  2  1  0  0  0  0
  1  9  1  0  0  0  0
  1 10  1  0  0  0  0
  1 11  1  0  0  0  0
  2  3  1  0  0  0  0
  2 12  1  0  0  0  0
  2 13  1  0  0  0  0
  3  8  1  0  0  0  0
  3  6  1  0  0  0  0
  3  4  1  0  0  0  0
  4  5  1  0  0  0  0
  4 14  1  0  0  0  0
  4 15  1  0  0  0  0
  5 16  1  0  0  0  0
  5 17  1  0  0  0  0
  5 18  1  0  0  0  0
  6  7  1  0  0  0  0
  6 19  1  0  0  0  0
  6 20  1  0  0  0  0
  7 21  1  0  0  0  0
  7 22  1  0  0  0  0
  7 23  1  0  0  0  0
  8 24  1  0  0  0  0
M  END
$$$$