44469100 43338491
 OpenBabel01161410163D

 13 13  0  0  0  0  0  0  0  0999 V2000
    2.6019   -0.7279   -1.0281 N   0  0  0  0  0  0  0  0  0  0  0  0
    2.4287    0.1329    0.1028 N   0  0  0  0  0  0  0  0  0  0  0  0
    3.2389    1.3344   -0.1240 C   0  0  0  0  0  0  0  0  0  0  0  0
    2.6973    2.4456   -0.9797 C   0  0  0  0  0  0  0  0  0  0  0  0
    2.8016    2.6280    0.5068 C   0  0  0  0  0  0  0  0  0  0  0  0
    1.8738   -1.4443   -1.0587 H   0  0  0  0  0  0  0  0  0  0  0  0
    3.4974   -1.2188   -1.0123 H   0  0  0  0  0  0  0  0  0  0  0  0
    2.6747   -0.3106    0.9935 H   0  0  0  0  0  0  0  0  0  0  0  0
    4.3129    1.1641   -0.1673 H   0  0  0  0  0  0  0  0  0  0  0  0
    1.7118    2.3173   -1.4124 H   0  0  0  0  0  0  0  0  0  0  0  0
    3.3960    2.9765   -1.6139 H   0  0  0  0  0  0  0  0  0  0  0  0
    3.5688    3.2929    0.8829 H   0  0  0  0  0  0  0  0  0  0  0  0
    1.8796    2.6411    1.0754 H   0  0  0  0  0  0  0  0  0  0  0  0
  1  2  1  0  0  0  0
  1  6  1  0  0  0  0
  1  7  1  0  0  0  0
  2  3  1  0  0  0  0
  2  8  1  0  0  0  0
  3  5  1  0  0  0  0
  3  4  1  0  0  0  0
  3  9  1  0  0  0  0
  4  5  1  0  0  0  0
  4 10  1  0  0  0  0
  4 11  1  0  0  0  0
  5 12  1  0  0  0  0
  5 13  1  0  0  0  0
M  END
$$$$