484898 484897
 OpenBabel01161410403D

 15 14  0  0  0  0  0  0  0  0999 V2000
    1.0691    0.1029   -0.0307 Cl  0  0  0  0  0  0  0  0  0  0  0  0
    2.8478   -0.0126    0.0397 C   0  0  0  0  0  0  0  0  0  0  0  0
    3.3626   -0.7461    1.2958 C   0  0  0  0  0  0  0  0  0  0  0  0
    2.9351   -0.0883    2.4949 O   0  0  0  0  0  0  0  0  0  0  0  0
    2.8715   -2.1938    1.3665 C   0  0  0  0  0  0  0  0  0  0  0  0
    4.8950   -0.7245    1.2974 C   0  0  0  0  0  0  0  0  0  0  0  0
    3.2151    1.0185    0.0213 H   0  0  0  0  0  0  0  0  0  0  0  0
    3.1801   -0.5138   -0.8750 H   0  0  0  0  0  0  0  0  0  0  0  0
    2.9689    0.8734    2.3549 H   0  0  0  0  0  0  0  0  0  0  0  0
    3.1453   -2.7563    0.4680 H   0  0  0  0  0  0  0  0  0  0  0  0
    1.7849   -2.2445    1.4940 H   0  0  0  0  0  0  0  0  0  0  0  0
    3.2987   -2.7064    2.2366 H   0  0  0  0  0  0  0  0  0  0  0  0
    5.3073   -1.2387    0.4231 H   0  0  0  0  0  0  0  0  0  0  0  0
    5.2927   -1.2013    2.2008 H   0  0  0  0  0  0  0  0  0  0  0  0
    5.2698    0.3056    1.3032 H   0  0  0  0  0  0  0  0  0  0  0  0
  1  2  1  0  0  0  0
  2  3  1  0  0  0  0
  2  7  1  0  0  0  0
  2  8  1  0  0  0  0
  3  6  1  0  0  0  0
  3  5  1  0  0  0  0
  3  4  1  0  0  0  0
  4  9  1  0  0  0  0
  5 10  1  0  0  0  0
  5 11  1  0  0  0  0
  5 12  1  0  0  0  0
  6 13  1  0  0  0  0
  6 14  1  0  0  0  0
  6 15  1  0  0  0  0
M  END
$$$$