31586056 31586055
 OpenBabel01161410163D

 44 45  0  0  1  0  0  0  0  0999 V2000
   -3.2979    0.1677    0.1463 N   0  0  0  0  0  0  0  0  0  0  0  0
   -2.3145    0.0207    1.2312 C   0  0  2  0  0  0  0  0  0  0  0  0
   -1.3350   -0.1351    0.7578 H   0  0  0  0  0  0  0  0  0  0  0  0
   -2.6457   -1.2608    2.0907 C   0  0  0  0  0  0  0  0  0  0  0  0
   -1.5643   -1.4948    3.1679 C   0  0  0  0  0  0  0  0  0  0  0  0
   -4.0127   -1.1441    2.7975 C   0  0  0  0  0  0  0  0  0  0  0  0
   -2.6731   -2.5228    1.1971 C   0  0  0  0  0  0  0  0  0  0  0  0
   -2.2282    1.3160    2.0845 C   0  0  0  0  0  0  0  0  0  0  0  0
   -1.6136    2.8264    1.1939 P   0  0  3  0  0  0  0  0  0  0  0  0
   -3.1266    3.4806    0.4014 C   0  0  0  0  0  0  0  0  0  0  0  0
   -4.3125    3.7226    1.1093 C   0  0  0  0  0  0  0  0  0  0  0  0
   -5.4518    4.1998    0.4561 C   0  0  0  0  0  0  0  0  0  0  0  0
   -5.4200    4.4452   -0.9140 C   0  0  0  0  0  0  0  0  0  0  0  0
   -4.2474    4.2201   -1.6307 C   0  0  0  0  0  0  0  0  0  0  0  0
   -3.1073    3.7441   -0.9772 C   0  0  0  0  0  0  0  0  0  0  0  0
   -1.4073    4.0750    2.5235 C   0  0  0  0  0  0  0  0  0  0  0  0
   -1.6341    3.8204    3.8835 C   0  0  0  0  0  0  0  0  0  0  0  0
   -1.4464    4.8187    4.8451 C   0  0  0  0  0  0  0  0  0  0  0  0
   -1.0265    6.0891    4.4638 C   0  0  0  0  0  0  0  0  0  0  0  0
   -0.7936    6.3627    3.1199 C   0  0  0  0  0  0  0  0  0  0  0  0
   -0.9810    5.3645    2.1594 C   0  0  0  0  0  0  0  0  0  0  0  0
   -3.1240    1.0409   -0.3523 H   0  0  0  0  0  0  0  0  0  0  0  0
   -3.1669   -0.5703   -0.5432 H   0  0  0  0  0  0  0  0  0  0  0  0
   -0.5642   -1.5263    2.7219 H   0  0  0  0  0  0  0  0  0  0  0  0
   -1.7253   -2.4468    3.6882 H   0  0  0  0  0  0  0  0  0  0  0  0
   -1.5718   -0.7160    3.9368 H   0  0  0  0  0  0  0  0  0  0  0  0
   -4.8246   -0.9672    2.0839 H   0  0  0  0  0  0  0  0  0  0  0  0
   -4.0232   -0.3289    3.5285 H   0  0  0  0  0  0  0  0  0  0  0  0
   -4.2526   -2.0648    3.3423 H   0  0  0  0  0  0  0  0  0  0  0  0
   -3.5036   -2.5024    0.4834 H   0  0  0  0  0  0  0  0  0  0  0  0
   -2.7981   -3.4308    1.7994 H   0  0  0  0  0  0  0  0  0  0  0  0
   -1.7399   -2.6261    0.6324 H   0  0  0  0  0  0  0  0  0  0  0  0
   -3.1849    1.5230    2.5719 H   0  0  0  0  0  0  0  0  0  0  0  0
   -1.4899    1.1403    2.8719 H   0  0  0  0  0  0  0  0  0  0  0  0
   -4.3675    3.5439    2.1801 H   0  0  0  0  0  0  0  0  0  0  0  0
   -6.3637    4.3770    1.0206 H   0  0  0  0  0  0  0  0  0  0  0  0
   -6.3081    4.8130   -1.4211 H   0  0  0  0  0  0  0  0  0  0  0  0
   -4.2195    4.4140   -2.6995 H   0  0  0  0  0  0  0  0  0  0  0  0
   -2.2036    3.5770   -1.5593 H   0  0  0  0  0  0  0  0  0  0  0  0
   -1.9664    2.8486    4.2324 H   0  0  0  0  0  0  0  0  0  0  0  0
   -1.6303    4.5993    5.8942 H   0  0  0  0  0  0  0  0  0  0  0  0
   -0.8814    6.8635    5.2123 H   0  0  0  0  0  0  0  0  0  0  0  0
   -0.4667    7.3530    2.8147 H   0  0  0  0  0  0  0  0  0  0  0  0
   -0.7934    5.6079    1.1151 H   0  0  0  0  0  0  0  0  0  0  0  0
  1 22  1  0  0  0  0
  1 23  1  0  0  0  0
  2  4  1  0  0  0  0
  2  3  1  6  0  0  0
  2  8  1  0  0  0  0
  2  1  1  0  0  0  0
  4  7  1  0  0  0  0
  4  6  1  0  0  0  0
  4  5  1  0  0  0  0
  5 24  1  0  0  0  0
  5 25  1  0  0  0  0
  5 26  1  0  0  0  0
  6 27  1  0  0  0  0
  6 28  1  0  0  0  0
  6 29  1  0  0  0  0
  7 30  1  0  0  0  0
  7 31  1  0  0  0  0
  7 32  1  0  0  0  0
  8  9  1  0  0  0  0
  8 33  1  0  0  0  0
  8 34  1  0  0  0  0
  9 16  1  0  0  0  0
  9 10  1  0  0  0  0
 10 11  2  0  0  0  0
 10 15  1  0  0  0  0
 11 12  1  0  0  0  0
 11 35  1  0  0  0  0
 12 13  2  0  0  0  0
 12 36  1  0  0  0  0
 13 14  1  0  0  0  0
 13 37  1  0  0  0  0
 14 15  2  0  0  0  0
 14 38  1  0  0  0  0
 15 39  1  0  0  0  0
 16 17  2  0  0  0  0
 16 21  1  0  0  0  0
 17 18  1  0  0  0  0
 17 40  1  0  0  0  0
 18 19  2  0  0  0  0
 18 41  1  0  0  0  0
 19 20  1  0  0  0  0
 19 42  1  0  0  0  0
 20 21  2  0  0  0  0
 20 43  1  0  0  0  0
 21 44  1  0  0  0  0
M  END
$$$$