44696324 44696323
 OpenBabel01161410483D

 22 22  0  0  1  0  0  0  0  0999 V2000
    1.3712    0.6614   -1.2502 S   0  0  0  0  0  0  0  0  0  0  0  0
    3.0363    0.1209   -0.7395 C   0  0  0  0  0  0  0  0  0  0  0  0
    3.2933    0.3380    0.7619 C   0  0  3  0  0  0  0  0  0  0  0  0
    4.8205   -0.5574    1.2881 S   0  0  0  0  0  0  0  0  0  0  0  0
    6.0935    0.4974    0.5134 C   0  0  0  0  0  0  0  0  0  0  0  0
    6.1281    1.9509    1.0054 C   0  0  3  0  0  0  0  0  0  0  0  0
    4.6117    2.8546    0.4678 S   0  0  0  0  0  0  0  0  0  0  0  0
    3.3199    1.8038    1.2235 C   0  0  0  0  0  0  0  0  0  0  0  0
    6.3637    2.1530    2.5132 C   0  0  0  0  0  0  0  0  0  0  0  0
    7.9582    1.4814    3.0903 S   0  0  0  0  0  0  0  0  0  0  0  0
    1.5000    0.3457   -2.5475 H   0  0  0  0  0  0  0  0  0  0  0  0
    3.7624    0.6479   -1.3648 H   0  0  0  0  0  0  0  0  0  0  0  0
    3.1038   -0.9443   -0.9875 H   0  0  0  0  0  0  0  0  0  0  0  0
    2.4883   -0.1617    1.3160 H   0  0  0  0  0  0  0  0  0  0  0  0
    7.0575    0.0158    0.7066 H   0  0  0  0  0  0  0  0  0  0  0  0
    5.9674    0.4594   -0.5746 H   0  0  0  0  0  0  0  0  0  0  0  0
    6.9452    2.4525    0.4713 H   0  0  0  0  0  0  0  0  0  0  0  0
    3.4194    1.8597    2.3134 H   0  0  0  0  0  0  0  0  0  0  0  0
    2.3612    2.2820    0.9975 H   0  0  0  0  0  0  0  0  0  0  0  0
    5.5776    1.6997    3.1235 H   0  0  0  0  0  0  0  0  0  0  0  0
    6.3788    3.2239    2.7454 H   0  0  0  0  0  0  0  0  0  0  0  0
    7.5965    0.1883    3.0777 H   0  0  0  0  0  0  0  0  0  0  0  0
  1  2  1  0  0  0  0
  1 11  1  0  0  0  0
  2  3  1  0  0  0  0
  2 12  1  0  0  0  0
  2 13  1  0  0  0  0
  3  8  1  0  0  0  0
  3  4  1  0  0  0  0
  3 14  1  0  0  0  0
  4  5  1  0  0  0  0
  5  6  1  0  0  0  0
  5 15  1  0  0  0  0
  5 16  1  0  0  0  0
  6  7  1  0  0  0  0
  6  9  1  0  0  0  0
  6 17  1  0  0  0  0
  7  8  1  0  0  0  0
  8 18  1  0  0  0  0
  8 19  1  0  0  0  0
  9 10  1  0  0  0  0
  9 20  1  0  0  0  0
  9 21  1  0  0  0  0
 10 22  1  0  0  0  0
M  END
$$$$