23892092 23892091
 OpenBabel01161409573D

 24 24  0  0  0  0  0  0  0  0999 V2000
    1.6769    0.2306    0.4387 Si  0  0  0  0  0  0  0  0  0  0  0  0
    1.2673    1.5958    0.0219 H   0  0  0  0  0  0  0  0  0  0  0  0
    0.5549   -0.7055    0.1749 H   0  0  0  0  0  0  0  0  0  0  0  0
    1.9731    0.2370    1.8933 H   0  0  0  0  0  0  0  0  0  0  0  0
    3.1905   -0.3001   -0.5266 C   0  0  0  0  0  0  0  0  0  0  0  0
    3.0148   -0.3046   -2.0506 C   0  0  0  0  0  0  0  0  0  0  0  0
    4.3033   -0.7292   -2.7664 C   0  0  0  0  0  0  0  0  0  0  0  0
    4.2622   -0.7452   -4.2798 C   0  0  0  0  0  0  0  0  0  0  0  0
    5.4416   -1.0702   -4.9706 C   0  0  0  0  0  0  0  0  0  0  0  0
    5.4713   -1.1049   -6.3663 C   0  0  0  0  0  0  0  0  0  0  0  0
    4.3206   -0.8163   -7.0944 C   0  0  0  0  0  0  0  0  0  0  0  0
    3.1426   -0.4947   -6.4261 C   0  0  0  0  0  0  0  0  0  0  0  0
    3.1127   -0.4603   -5.0293 C   0  0  0  0  0  0  0  0  0  0  0  0
    3.4776   -1.3041   -0.1930 H   0  0  0  0  0  0  0  0  0  0  0  0
    4.0175    0.3687   -0.2607 H   0  0  0  0  0  0  0  0  0  0  0  0
    2.7200    0.6976   -2.3884 H   0  0  0  0  0  0  0  0  0  0  0  0
    2.1998   -0.9882   -2.3221 H   0  0  0  0  0  0  0  0  0  0  0  0
    4.5775   -1.7367   -2.4271 H   0  0  0  0  0  0  0  0  0  0  0  0
    5.1103   -0.0503   -2.4606 H   0  0  0  0  0  0  0  0  0  0  0  0
    6.3511   -1.2993   -4.4189 H   0  0  0  0  0  0  0  0  0  0  0  0
    6.3930   -1.3574   -6.8838 H   0  0  0  0  0  0  0  0  0  0  0  0
    4.3411   -0.8425   -8.1803 H   0  0  0  0  0  0  0  0  0  0  0  0
    2.2419   -0.2696   -6.9914 H   0  0  0  0  0  0  0  0  0  0  0  0
    2.1731   -0.2059   -4.5469 H   0  0  0  0  0  0  0  0  0  0  0  0
  1  5  1  0  0  0  0
  1  4  1  0  0  0  0
  1  3  1  0  0  0  0
  1  2  1  0  0  0  0
  5  6  1  0  0  0  0
  5 14  1  0  0  0  0
  5 15  1  0  0  0  0
  6  7  1  0  0  0  0
  6 16  1  0  0  0  0
  6 17  1  0  0  0  0
  7  8  1  0  0  0  0
  7 18  1  0  0  0  0
  7 19  1  0  0  0  0
  8  9  2  0  0  0  0
  8 13  1  0  0  0  0
  9 10  1  0  0  0  0
  9 20  1  0  0  0  0
 10 11  2  0  0  0  0
 10 21  1  0  0  0  0
 11 12  1  0  0  0  0
 11 22  1  0  0  0  0
 12 13  2  0  0  0  0
 12 23  1  0  0  0  0
 13 24  1  0  0  0  0
M  END
$$$$