630526 630525
 OpenBabel01161410403D

 22 23  0  0  1  0  0  0  0  0999 V2000
    0.8411   -0.0926   -0.1528 C   0  0  0  0  0  0  0  0  0  0  0  0
    2.3218    0.1842    0.0092 C   0  0  3  0  0  0  0  0  0  0  0  0
    3.2497   -0.4389   -1.0189 C   0  0  0  0  0  0  0  0  0  0  0  0
    3.0452    1.0494   -1.0279 C   0  0  0  0  0  0  0  0  0  0  0  0
    2.1452    1.7405   -2.3796 Cl  0  0  0  0  0  0  0  0  0  0  0  0
    4.4449    2.0324   -0.5913 Cl  0  0  0  0  0  0  0  0  0  0  0  0
    2.7619    0.2255    1.4726 C   0  0  0  0  0  0  0  0  0  0  0  0
    2.6010    1.3877    2.2485 C   0  0  0  0  0  0  0  0  0  0  0  0
    2.9812    1.4275    3.5928 C   0  0  0  0  0  0  0  0  0  0  0  0
    3.5229    0.2972    4.1965 C   0  0  0  0  0  0  0  0  0  0  0  0
    3.6793   -0.8713    3.4578 C   0  0  0  0  0  0  0  0  0  0  0  0
    3.2984   -0.9056    2.1136 C   0  0  0  0  0  0  0  0  0  0  0  0
    0.5692   -0.3368   -1.1848 H   0  0  0  0  0  0  0  0  0  0  0  0
    0.2541    0.7790    0.1565 H   0  0  0  0  0  0  0  0  0  0  0  0
    0.5389   -0.9455    0.4656 H   0  0  0  0  0  0  0  0  0  0  0  0
    2.8184   -1.0202   -1.8257 H   0  0  0  0  0  0  0  0  0  0  0  0
    4.2159   -0.8141   -0.7005 H   0  0  0  0  0  0  0  0  0  0  0  0
    2.1758    2.2825    1.7976 H   0  0  0  0  0  0  0  0  0  0  0  0
    2.8531    2.3425    4.1651 H   0  0  0  0  0  0  0  0  0  0  0  0
    3.8193    0.3265    5.2407 H   0  0  0  0  0  0  0  0  0  0  0  0
    4.0960   -1.7591    3.9264 H   0  0  0  0  0  0  0  0  0  0  0  0
    3.4196   -1.8339    1.5592 H   0  0  0  0  0  0  0  0  0  0  0  0
  1  2  1  0  0  0  0
  1 13  1  0  0  0  0
  1 14  1  0  0  0  0
  1 15  1  0  0  0  0
  2  4  1  0  0  0  0
  2  3  1  0  0  0  0
  2  7  1  0  0  0  0
  3  4  1  0  0  0  0
  3 16  1  0  0  0  0
  3 17  1  0  0  0  0
  4  6  1  0  0  0  0
  4  5  1  0  0  0  0
  7  8  2  0  0  0  0
  7 12  1  0  0  0  0
  8  9  1  0  0  0  0
  8 18  1  0  0  0  0
  9 10  2  0  0  0  0
  9 19  1  0  0  0  0
 10 11  1  0  0  0  0
 10 20  1  0  0  0  0
 11 12  2  0  0  0  0
 11 21  1  0  0  0  0
 12 22  1  0  0  0  0
M  END
$$$$