43597633 43597632
 OpenBabel01161410173D

 38 39  0  0  1  0  0  0  0  0999 V2000
    2.2533   -0.4122   -1.9661 O   0  0  0  0  0  0  0  0  0  0  0  0
    3.3874   -0.3029   -1.1160 C   0  0  0  0  0  0  0  0  0  0  0  0
    3.2402   -1.2034    0.1189 C   0  0  3  0  0  0  0  0  0  0  0  0
    3.0378   -2.6592   -0.3173 C   0  0  0  0  0  0  0  0  0  0  0  0
    3.0345   -3.5826    0.7707 O   0  0  0  0  0  0  0  0  0  0  0  0
    4.3524   -3.8927    1.2171 C   0  0  0  0  0  0  0  0  0  0  0  0
    4.7997   -3.0101    2.3901 C   0  0  0  0  0  0  0  0  0  0  0  0
    4.4154   -1.5913    2.3920 N   0  0  0  0  0  0  0  0  0  0  0  0
    4.4424   -0.9742    1.0596 C   0  0  0  0  0  0  0  0  0  0  0  0
    3.1800   -1.3666    3.1580 C   0  0  0  0  0  0  0  0  0  0  0  0
    2.9346    0.0972    3.4675 C   0  0  0  0  0  0  0  0  0  0  0  0
    1.7957    0.7528    2.9855 C   0  0  0  0  0  0  0  0  0  0  0  0
    1.6010    2.1010    3.2622 C   0  0  0  0  0  0  0  0  0  0  0  0
    0.5163    2.7199    2.7785 F   0  0  0  0  0  0  0  0  0  0  0  0
    2.5123    2.8194    4.0273 C   0  0  0  0  0  0  0  0  0  0  0  0
    3.6531    2.1840    4.5343 C   0  0  0  0  0  0  0  0  0  0  0  0
    3.8537    0.8216    4.2475 C   0  0  0  0  0  0  0  0  0  0  0  0
    4.6534    2.9307    5.3796 C   0  0  0  0  0  0  0  0  0  0  0  0
    4.7219    2.4476    6.6508 F   0  0  0  0  0  0  0  0  0  0  0  0
    5.9182    2.8578    4.8815 F   0  0  0  0  0  0  0  0  0  0  0  0
    4.3773    4.2594    5.5005 F   0  0  0  0  0  0  0  0  0  0  0  0
    1.4941   -0.0201   -1.4993 H   0  0  0  0  0  0  0  0  0  0  0  0
    3.4941    0.7487   -0.8293 H   0  0  0  0  0  0  0  0  0  0  0  0
    4.2713   -0.5817   -1.6990 H   0  0  0  0  0  0  0  0  0  0  0  0
    2.3206   -0.8981    0.6297 H   0  0  0  0  0  0  0  0  0  0  0  0
    3.7739   -2.9634   -1.0711 H   0  0  0  0  0  0  0  0  0  0  0  0
    2.0563   -2.7525   -0.7962 H   0  0  0  0  0  0  0  0  0  0  0  0
    4.3424   -4.9362    1.5511 H   0  0  0  0  0  0  0  0  0  0  0  0
    5.0737   -3.8382    0.3927 H   0  0  0  0  0  0  0  0  0  0  0  0
    4.4746   -3.4862    3.3247 H   0  0  0  0  0  0  0  0  0  0  0  0
    5.8961   -3.0584    2.4344 H   0  0  0  0  0  0  0  0  0  0  0  0
    4.5548    0.1077    1.2091 H   0  0  0  0  0  0  0  0  0  0  0  0
    5.3688   -1.2678    0.5465 H   0  0  0  0  0  0  0  0  0  0  0  0
    3.2536   -1.8642    4.1353 H   0  0  0  0  0  0  0  0  0  0  0  0
    2.3067   -1.8141    2.6692 H   0  0  0  0  0  0  0  0  0  0  0  0
    1.0553    0.2274    2.3898 H   0  0  0  0  0  0  0  0  0  0  0  0
    2.3220    3.8720    4.2222 H   0  0  0  0  0  0  0  0  0  0  0  0
    4.7427    0.3157    4.6266 H   0  0  0  0  0  0  0  0  0  0  0  0
  1  2  1  0  0  0  0
  1 22  1  0  0  0  0
  2  3  1  0  0  0  0
  2 23  1  0  0  0  0
  2 24  1  0  0  0  0
  3  9  1  0  0  0  0
  3  4  1  0  0  0  0
  3 25  1  0  0  0  0
  4  5  1  0  0  0  0
  4 26  1  0  0  0  0
  4 27  1  0  0  0  0
  5  6  1  0  0  0  0
  6  7  1  0  0  0  0
  6 28  1  0  0  0  0
  6 29  1  0  0  0  0
  7  8  1  0  0  0  0
  7 30  1  0  0  0  0
  7 31  1  0  0  0  0
  8  9  1  0  0  0  0
  8 10  1  0  0  0  0
  9 32  1  0  0  0  0
  9 33  1  0  0  0  0
 10 11  1  0  0  0  0
 10 34  1  0  0  0  0
 10 35  1  0  0  0  0
 11 17  1  0  0  0  0
 11 12  2  0  0  0  0
 12 13  1  0  0  0  0
 12 36  1  0  0  0  0
 13 15  2  0  0  0  0
 13 14  1  0  0  0  0
 15 16  1  0  0  0  0
 15 37  1  0  0  0  0
 16 17  2  0  0  0  0
 16 18  1  0  0  0  0
 17 38  1  0  0  0  0
 18 21  1  0  0  0  0
 18 20  1  0  0  0  0
 18 19  1  0  0  0  0
M  END
$$$$