28287712 28287711
 OpenBabel01161410083D

 20 21  0  0  0  0  0  0  0  0999 V2000
    1.1987   -0.0796   -0.4555 Cl  0  0  0  0  0  0  0  0  0  0  0  0
    2.9018   -0.0301   -0.2469 C   0  0  0  0  0  0  0  0  0  0  0  0
    3.5605    1.1707   -0.1699 C   0  0  0  0  0  0  0  0  0  0  0  0
    4.9280    1.1041   -0.0050 C   0  0  0  0  0  0  0  0  0  0  0  0
    5.5539   -0.0914    0.0841 N   0  0  0  0  0  0  0  0  0  0  0  0
    4.8116   -1.2115   -0.0018 C   0  0  0  0  0  0  0  0  0  0  0  0
    3.4851   -1.2329   -0.1711 N   0  0  0  0  0  0  0  0  0  0  0  0
    5.5318   -2.5211    0.0736 C   0  0  0  0  0  0  0  0  0  0  0  0
    5.7540    2.3644    0.0983 C   0  0  0  0  0  0  0  0  0  0  0  0
    7.0923    2.4532   -0.5987 C   0  0  0  0  0  0  0  0  0  0  0  0
    5.9318    3.2497   -1.1143 C   0  0  0  0  0  0  0  0  0  0  0  0
    3.0400    2.1158   -0.2376 H   0  0  0  0  0  0  0  0  0  0  0  0
    4.8258   -3.3541    0.1462 H   0  0  0  0  0  0  0  0  0  0  0  0
    6.1817   -2.5423    0.9533 H   0  0  0  0  0  0  0  0  0  0  0  0
    6.1432   -2.6592   -0.8228 H   0  0  0  0  0  0  0  0  0  0  0  0
    5.6967    2.8681    1.0608 H   0  0  0  0  0  0  0  0  0  0  0  0
    7.4291    1.6030   -1.1820 H   0  0  0  0  0  0  0  0  0  0  0  0
    7.8908    2.9797   -0.0893 H   0  0  0  0  0  0  0  0  0  0  0  0
    5.9460    4.3227   -0.9614 H   0  0  0  0  0  0  0  0  0  0  0  0
    5.4980    2.9432   -2.0599 H   0  0  0  0  0  0  0  0  0  0  0  0
  1  2  1  0  0  0  0
  2  7  1  0  0  0  0
  2  3  2  0  0  0  0
  3  4  1  0  0  0  0
  3 12  1  0  0  0  0
  4  5  2  0  0  0  0
  4  9  1  0  0  0  0
  5  6  1  0  0  0  0
  6  7  2  0  0  0  0
  6  8  1  0  0  0  0
  8 13  1  0  0  0  0
  8 14  1  0  0  0  0
  8 15  1  0  0  0  0
  9 11  1  0  0  0  0
  9 10  1  0  0  0  0
  9 16  1  0  0  0  0
 10 11  1  0  0  0  0
 10 17  1  0  0  0  0
 10 18  1  0  0  0  0
 11 19  1  0  0  0  0
 11 20  1  0  0  0  0
M  END
$$$$