6786784 6786783
 OpenBabel01161410173D

 29 31  0  0  0  0  0  0  0  0999 V2000
    1.4825   -0.3692    1.6550 Cl  0  0  0  0  0  0  0  0  0  0  0  0
    3.0463   -0.2475    0.9485 C   0  0  0  0  0  0  0  0  0  0  0  0
    3.3477    0.8256    0.1138 C   0  0  0  0  0  0  0  0  0  0  0  0
    4.6196    0.9241   -0.4595 C   0  0  0  0  0  0  0  0  0  0  0  0
    5.5958   -0.0501   -0.2050 C   0  0  0  0  0  0  0  0  0  0  0  0
    5.2758   -1.1226    0.6404 C   0  0  0  0  0  0  0  0  0  0  0  0
    4.0047   -1.2218    1.2154 C   0  0  0  0  0  0  0  0  0  0  0  0
    6.9174    0.0685   -0.8050 C   0  0  0  0  0  0  0  0  0  0  0  0
    7.6611    1.2387   -1.1284 C   0  0  0  0  0  0  0  0  0  0  0  0
    8.8569    0.8439   -1.6947 C   0  0  0  0  0  0  0  0  0  0  0  0
    8.8688   -0.5437   -1.7356 N   0  0  0  0  0  0  0  0  0  0  0  0
    7.6901   -1.0089   -1.1978 C   0  0  0  0  0  0  0  0  0  0  0  0
    9.9289   -1.2829   -2.2511 C   0  0  0  0  0  0  0  0  0  0  0  0
   11.0020   -0.6395   -2.7356 C   0  0  0  0  0  0  0  0  0  0  0  0
   11.0211    0.8145   -2.7054 C   0  0  0  0  0  0  0  0  0  0  0  0
    9.9998    1.5543   -2.2091 C   0  0  0  0  0  0  0  0  0  0  0  0
   10.1001    3.0597   -2.2159 C   0  0  0  0  0  0  0  0  0  0  0  0
    2.6015    1.5866   -0.0975 H   0  0  0  0  0  0  0  0  0  0  0  0
    4.8340    1.7633   -1.1173 H   0  0  0  0  0  0  0  0  0  0  0  0
    6.0156   -1.8850    0.8726 H   0  0  0  0  0  0  0  0  0  0  0  0
    3.7739   -2.0576    1.8702 H   0  0  0  0  0  0  0  0  0  0  0  0
    7.3601    2.2639   -0.9573 H   0  0  0  0  0  0  0  0  0  0  0  0
    7.5017   -2.0727   -1.1537 H   0  0  0  0  0  0  0  0  0  0  0  0
    9.8404   -2.3612   -2.2390 H   0  0  0  0  0  0  0  0  0  0  0  0
   11.8530   -1.1697   -3.1479 H   0  0  0  0  0  0  0  0  0  0  0  0
   11.9116    1.2900   -3.1083 H   0  0  0  0  0  0  0  0  0  0  0  0
   11.0429    3.4135   -2.6464 H   0  0  0  0  0  0  0  0  0  0  0  0
   10.0340    3.4475   -1.1939 H   0  0  0  0  0  0  0  0  0  0  0  0
    9.2827    3.4902   -2.8039 H   0  0  0  0  0  0  0  0  0  0  0  0
  1  2  1  0  0  0  0
  2  3  2  0  0  0  0
  2  7  1  0  0  0  0
  3  4  1  0  0  0  0
  3 18  1  0  0  0  0
  4  5  2  0  0  0  0
  4 19  1  0  0  0  0
  5  6  1  0  0  0  0
  5  8  1  0  0  0  0
  6  7  2  0  0  0  0
  6 20  1  0  0  0  0
  7 21  1  0  0  0  0
  8  9  1  0  0  0  0
  8 12  2  0  0  0  0
  9 10  2  0  0  0  0
  9 22  1  0  0  0  0
 10 16  1  0  0  0  0
 10 11  1  0  0  0  0
 11 12  1  0  0  0  0
 11 13  1  0  0  0  0
 12 23  1  0  0  0  0
 13 14  2  0  0  0  0
 13 24  1  0  0  0  0
 14 15  1  0  0  0  0
 14 25  1  0  0  0  0
 15 16  2  0  0  0  0
 15 26  1  0  0  0  0
 16 17  1  0  0  0  0
 17 27  1  0  0  0  0
 17 28  1  0  0  0  0
 17 29  1  0  0  0  0
M  END
$$$$