30484137 30484136
 OpenBabel01161410593D

 42 43  0  0  0  0  0  0  0  0999 V2000
    7.0775    4.1158   -1.7302 C   0  0  0  0  0  0  0  0  0  0  0  0
    6.5010    2.7732   -1.3085 C   0  0  0  0  0  0  0  0  0  0  0  0
    7.2079    1.5802   -1.9504 C   0  0  0  0  0  0  0  0  0  0  0  0
    8.6890    1.3958   -1.5955 C   0  0  0  0  0  0  0  0  0  0  0  0
    8.9562    1.0908   -0.1165 C   0  0  0  0  0  0  0  0  0  0  0  0
    9.3501    2.3242    0.7056 C   0  0  0  0  0  0  0  0  0  0  0  0
    9.4510    2.0476    2.2105 C   0  0  0  0  0  0  0  0  0  0  0  0
   10.6086    1.1820    2.6038 C   0  0  0  0  0  0  0  0  0  0  0  0
   11.8825    1.5993    2.9394 C   0  0  0  0  0  0  0  0  0  0  0  0
   12.3990    2.8449    2.9701 N   0  0  0  0  0  0  0  0  0  0  0  0
   12.6198    0.4901    3.2870 N   0  0  0  0  0  0  0  0  0  0  0  0
   11.8714   -0.6574    3.1002 C   0  0  0  0  0  0  0  0  0  0  0  0
   10.5943   -0.2475    2.7117 C   0  0  0  0  0  0  0  0  0  0  0  0
    9.6045   -1.2322    2.4988 C   0  0  0  0  0  0  0  0  0  0  0  0
    9.9226   -2.5851    2.6454 C   0  0  0  0  0  0  0  0  0  0  0  0
   11.2067   -2.9694    3.0120 C   0  0  0  0  0  0  0  0  0  0  0  0
   12.2005   -2.0157    3.2518 C   0  0  0  0  0  0  0  0  0  0  0  0
   13.9714    0.5037    3.8036 C   0  0  0  0  0  0  0  0  0  0  0  0
    6.5153    4.9292   -1.2608 H   0  0  0  0  0  0  0  0  0  0  0  0
    7.0160    4.2433   -2.8154 H   0  0  0  0  0  0  0  0  0  0  0  0
    8.1245    4.2227   -1.4338 H   0  0  0  0  0  0  0  0  0  0  0  0
    5.4445    2.7464   -1.6029 H   0  0  0  0  0  0  0  0  0  0  0  0
    6.5143    2.6836   -0.2175 H   0  0  0  0  0  0  0  0  0  0  0  0
    7.1234    1.6658   -3.0411 H   0  0  0  0  0  0  0  0  0  0  0  0
    6.6636    0.6673   -1.6757 H   0  0  0  0  0  0  0  0  0  0  0  0
    9.2834    2.2506   -1.9348 H   0  0  0  0  0  0  0  0  0  0  0  0
    9.0421    0.5341   -2.1779 H   0  0  0  0  0  0  0  0  0  0  0  0
    9.7860    0.3752   -0.0749 H   0  0  0  0  0  0  0  0  0  0  0  0
    8.0860    0.5948    0.3285 H   0  0  0  0  0  0  0  0  0  0  0  0
    8.6019    3.1100    0.5704 H   0  0  0  0  0  0  0  0  0  0  0  0
   10.2994    2.7255    0.3300 H   0  0  0  0  0  0  0  0  0  0  0  0
    8.5144    1.6036    2.5693 H   0  0  0  0  0  0  0  0  0  0  0  0
    9.5387    3.0101    2.7316 H   0  0  0  0  0  0  0  0  0  0  0  0
   13.3993    3.0162    2.9847 H   0  0  0  0  0  0  0  0  0  0  0  0
   11.8775    3.6137    2.5555 H   0  0  0  0  0  0  0  0  0  0  0  0
    8.5991   -0.9445    2.2073 H   0  0  0  0  0  0  0  0  0  0  0  0
    9.1596   -3.3383    2.4666 H   0  0  0  0  0  0  0  0  0  0  0  0
   11.4418   -4.0256    3.1180 H   0  0  0  0  0  0  0  0  0  0  0  0
   13.1971   -2.3300    3.5431 H   0  0  0  0  0  0  0  0  0  0  0  0
   14.6603    0.4789    2.9562 H   0  0  0  0  0  0  0  0  0  0  0  0
   14.1282   -0.3633    4.4498 H   0  0  0  0  0  0  0  0  0  0  0  0
   14.1263    1.4057    4.4009 H   0  0  0  0  0  0  0  0  0  0  0  0
  1  2  1  0  0  0  0
  1 19  1  0  0  0  0
  1 20  1  0  0  0  0
  1 21  1  0  0  0  0
  2  3  1  0  0  0  0
  2 22  1  0  0  0  0
  2 23  1  0  0  0  0
  3  4  1  0  0  0  0
  3 24  1  0  0  0  0
  3 25  1  0  0  0  0
  4  5  1  0  0  0  0
  4 26  1  0  0  0  0
  4 27  1  0  0  0  0
  5  6  1  0  0  0  0
  5 28  1  0  0  0  0
  5 29  1  0  0  0  0
  6  7  1  0  0  0  0
  6 30  1  0  0  0  0
  6 31  1  0  0  0  0
  7  8  1  0  0  0  0
  7 32  1  0  0  0  0
  7 33  1  0  0  0  0
  8  9  2  0  0  0  0
  8 13  1  0  0  0  0
  9 11  1  0  0  0  0
  9 10  1  0  0  0  0
 10 34  1  0  0  0  0
 10 35  1  0  0  0  0
 11 12  1  0  0  0  0
 11 18  1  0  0  0  0
 12 17  1  0  0  0  0
 12 13  2  0  0  0  0
 13 14  1  0  0  0  0
 14 15  2  0  0  0  0
 14 36  1  0  0  0  0
 15 16  1  0  0  0  0
 15 37  1  0  0  0  0
 16 17  2  0  0  0  0
 16 38  1  0  0  0  0
 17 39  1  0  0  0  0
 18 40  1  0  0  0  0
 18 41  1  0  0  0  0
 18 42  1  0  0  0  0
M  END
$$$$