8317476 8317475
 OpenBabel01161410493D

 58 58  0  0  1  0  0  0  0  0999 V2000
    9.2676    4.0538   -2.5733 C   0  0  0  0  0  0  0  0  0  0  0  0
    9.4908    2.8132   -1.7168 C   0  0  0  0  0  0  0  0  0  0  0  0
   10.1393    3.1289   -0.3630 C   0  0  0  0  0  0  0  0  0  0  0  0
   11.5507    2.5463   -0.1637 C   0  0  0  0  0  0  0  0  0  0  0  0
   12.7270    3.4838   -0.4900 C   0  0  0  0  0  0  0  0  0  0  0  0
   13.4426    3.2175   -1.8243 C   0  0  0  0  0  0  0  0  0  0  0  0
   12.6408    3.7484   -2.9996 C   0  0  0  0  0  0  0  0  0  0  0  0
   13.2956    3.5819   -4.3677 C   0  0  0  0  0  0  0  0  0  0  0  0
   12.3451    4.1492   -5.4364 C   0  0  0  0  0  0  0  0  0  0  0  0
   12.6248    3.6243   -6.8429 C   0  0  0  0  0  0  0  0  0  0  0  0
   12.2953    2.1707   -6.9676 C   0  0  3  0  0  0  0  0  0  0  0  0
   13.4385    1.3095   -6.8945 O   0  0  0  0  0  0  0  0  0  0  0  0
   12.7020    1.2610   -8.1155 C   0  0  3  0  0  0  0  0  0  0  0  0
   13.3736    1.6974   -9.3798 C   0  0  0  0  0  0  0  0  0  0  0  0
   14.7011    2.4487   -9.3209 C   0  0  0  0  0  0  0  0  0  0  0  0
   15.8693    1.6671   -8.7137 C   0  0  0  0  0  0  0  0  0  0  0  0
   17.1139    2.5574   -8.6181 C   0  0  0  0  0  0  0  0  0  0  0  0
   18.3201    1.8735   -7.9491 C   0  0  0  0  0  0  0  0  0  0  0  0
   18.0552    1.5280   -6.4816 C   0  0  0  0  0  0  0  0  0  0  0  0
   19.5427    2.7898   -8.0446 C   0  0  0  0  0  0  0  0  0  0  0  0
    8.3723    4.5925   -2.2494 H   0  0  0  0  0  0  0  0  0  0  0  0
   10.1029    4.7490   -2.5226 H   0  0  0  0  0  0  0  0  0  0  0  0
    9.1267    3.7662   -3.6221 H   0  0  0  0  0  0  0  0  0  0  0  0
   10.0747    2.0677   -2.2676 H   0  0  0  0  0  0  0  0  0  0  0  0
    8.5108    2.3507   -1.5476 H   0  0  0  0  0  0  0  0  0  0  0  0
    9.4993    2.6640    0.3999 H   0  0  0  0  0  0  0  0  0  0  0  0
   10.1235    4.2032   -0.1463 H   0  0  0  0  0  0  0  0  0  0  0  0
   11.6589    1.5795   -0.6678 H   0  0  0  0  0  0  0  0  0  0  0  0
   11.6314    2.3278    0.9104 H   0  0  0  0  0  0  0  0  0  0  0  0
   13.4803    3.3401    0.2959 H   0  0  0  0  0  0  0  0  0  0  0  0
   12.4206    4.5342   -0.4231 H   0  0  0  0  0  0  0  0  0  0  0  0
   13.6396    2.1451   -1.9420 H   0  0  0  0  0  0  0  0  0  0  0  0
   14.4176    3.7186   -1.8049 H   0  0  0  0  0  0  0  0  0  0  0  0
   12.4060    4.8032   -2.8378 H   0  0  0  0  0  0  0  0  0  0  0  0
   11.7085    3.1894   -3.0415 H   0  0  0  0  0  0  0  0  0  0  0  0
   13.5001    2.5210   -4.5378 H   0  0  0  0  0  0  0  0  0  0  0  0
   14.2557    4.1095   -4.4041 H   0  0  0  0  0  0  0  0  0  0  0  0
   12.4346    5.2430   -5.4368 H   0  0  0  0  0  0  0  0  0  0  0  0
   11.3027    3.9233   -5.1782 H   0  0  0  0  0  0  0  0  0  0  0  0
   13.6702    3.8354   -7.0754 H   0  0  0  0  0  0  0  0  0  0  0  0
   12.0055    4.1800   -7.5560 H   0  0  0  0  0  0  0  0  0  0  0  0
   11.4019    1.8885   -6.4222 H   0  0  0  0  0  0  0  0  0  0  0  0
   12.0727    0.3939   -8.2869 H   0  0  0  0  0  0  0  0  0  0  0  0
   12.6554    2.3195   -9.9291 H   0  0  0  0  0  0  0  0  0  0  0  0
   13.5236    0.8028   -9.9977 H   0  0  0  0  0  0  0  0  0  0  0  0
   14.5792    3.4039   -8.8065 H   0  0  0  0  0  0  0  0  0  0  0  0
   14.9737    2.7140  -10.3511 H   0  0  0  0  0  0  0  0  0  0  0  0
   16.0862    0.7869   -9.3302 H   0  0  0  0  0  0  0  0  0  0  0  0
   15.6111    1.3053   -7.7187 H   0  0  0  0  0  0  0  0  0  0  0  0
   16.8646    3.4721   -8.0644 H   0  0  0  0  0  0  0  0  0  0  0  0
   17.3946    2.8712   -9.6314 H   0  0  0  0  0  0  0  0  0  0  0  0
   18.5467    0.9471   -8.4881 H   0  0  0  0  0  0  0  0  0  0  0  0
   17.7266    2.4090   -5.9185 H   0  0  0  0  0  0  0  0  0  0  0  0
   18.9616    1.1419   -6.0027 H   0  0  0  0  0  0  0  0  0  0  0  0
   17.2867    0.7559   -6.3838 H   0  0  0  0  0  0  0  0  0  0  0  0
   19.3736    3.7340   -7.5148 H   0  0  0  0  0  0  0  0  0  0  0  0
   20.4249    2.3100   -7.6082 H   0  0  0  0  0  0  0  0  0  0  0  0
   19.7730    3.0243   -9.0891 H   0  0  0  0  0  0  0  0  0  0  0  0
  1  2  1  0  0  0  0
  1 21  1  0  0  0  0
  1 22  1  0  0  0  0
  1 23  1  0  0  0  0
  2  3  1  0  0  0  0
  2 24  1  0  0  0  0
  2 25  1  0  0  0  0
  3  4  1  0  0  0  0
  3 26  1  0  0  0  0
  3 27  1  0  0  0  0
  4  5  1  0  0  0  0
  4 28  1  0  0  0  0
  4 29  1  0  0  0  0
  5  6  1  0  0  0  0
  5 30  1  0  0  0  0
  5 31  1  0  0  0  0
  6  7  1  0  0  0  0
  6 32  1  0  0  0  0
  6 33  1  0  0  0  0
  7  8  1  0  0  0  0
  7 34  1  0  0  0  0
  7 35  1  0  0  0  0
  8  9  1  0  0  0  0
  8 36  1  0  0  0  0
  8 37  1  0  0  0  0
  9 10  1  0  0  0  0
  9 38  1  0  0  0  0
  9 39  1  0  0  0  0
 10 11  1  0  0  0  0
 10 40  1  0  0  0  0
 10 41  1  0  0  0  0
 11 13  1  0  0  0  0
 11 12  1  0  0  0  0
 11 42  1  0  0  0  0
 12 13  1  0  0  0  0
 13 14  1  0  0  0  0
 13 43  1  0  0  0  0
 14 15  1  0  0  0  0
 14 44  1  0  0  0  0
 14 45  1  0  0  0  0
 15 16  1  0  0  0  0
 15 46  1  0  0  0  0
 15 47  1  0  0  0  0
 16 17  1  0  0  0  0
 16 48  1  0  0  0  0
 16 49  1  0  0  0  0
 17 18  1  0  0  0  0
 17 50  1  0  0  0  0
 17 51  1  0  0  0  0
 18 20  1  0  0  0  0
 18 19  1  0  0  0  0
 18 52  1  0  0  0  0
 19 53  1  0  0  0  0
 19 54  1  0  0  0  0
 19 55  1  0  0  0  0
 20 56  1  0  0  0  0
 20 57  1  0  0  0  0
 20 58  1  0  0  0  0
M  END
$$$$