1161519 1161518
 OpenBabel01161410203D

 32 33  0  0  1  0  0  0  0  0999 V2000
    3.0089   -2.2178   -0.3276 Cl  0  0  0  0  0  0  0  0  0  0  0  0
    2.1201   -0.6868    0.0553 C   0  0  0  0  0  0  0  0  0  0  0  0
    3.0201    0.2611    0.9743 C   0  0  3  0  0  0  0  0  0  0  0  0
    4.2789    0.6240    0.2964 N   0  0  0  0  0  0  0  0  0  0  0  0
    5.3331    1.2579    0.9537 C   0  0  0  0  0  0  0  0  0  0  0  0
    6.2716    1.9620    0.1848 C   0  0  0  0  0  0  0  0  0  0  0  0
    7.3535    2.6190    0.7774 C   0  0  0  0  0  0  0  0  0  0  0  0
    7.5355    2.5544    2.1540 C   0  0  0  0  0  0  0  0  0  0  0  0
    6.6485    1.8141    2.9289 C   0  0  0  0  0  0  0  0  0  0  0  0
    5.5669    1.1589    2.3296 C   0  0  0  0  0  0  0  0  0  0  0  0
    2.3780    1.5466    1.2723 N   0  0  0  0  0  0  0  0  0  0  0  0
    1.5263    1.6957    2.3705 C   0  0  0  0  0  0  0  0  0  0  0  0
    0.5843    2.7317    2.3085 C   0  0  0  0  0  0  0  0  0  0  0  0
   -0.2644    3.0095    3.3820 C   0  0  0  0  0  0  0  0  0  0  0  0
   -0.1629    2.2686    4.5541 C   0  0  0  0  0  0  0  0  0  0  0  0
    0.7959    1.2646    4.6519 C   0  0  0  0  0  0  0  0  0  0  0  0
    1.6434    0.9903    3.5723 C   0  0  0  0  0  0  0  0  0  0  0  0
    1.7234    0.1087   -1.5196 Cl  0  0  0  0  0  0  0  0  0  0  0  0
    0.5801   -1.1694    0.8505 Cl  0  0  0  0  0  0  0  0  0  0  0  0
    3.2641   -0.3094    1.8753 H   0  0  0  0  0  0  0  0  0  0  0  0
    4.0913    1.0280   -0.6195 H   0  0  0  0  0  0  0  0  0  0  0  0
    6.1600    2.0201   -0.8957 H   0  0  0  0  0  0  0  0  0  0  0  0
    8.0519    3.1784    0.1606 H   0  0  0  0  0  0  0  0  0  0  0  0
    8.3728    3.0669    2.6199 H   0  0  0  0  0  0  0  0  0  0  0  0
    6.7973    1.7413    4.0032 H   0  0  0  0  0  0  0  0  0  0  0  0
    4.9146    0.5800    2.9745 H   0  0  0  0  0  0  0  0  0  0  0  0
    3.1069    2.2560    1.3445 H   0  0  0  0  0  0  0  0  0  0  0  0
    0.4970    3.3239    1.4001 H   0  0  0  0  0  0  0  0  0  0  0  0
   -1.0007    3.8044    3.2990 H   0  0  0  0  0  0  0  0  0  0  0  0
   -0.8208    2.4804    5.3928 H   0  0  0  0  0  0  0  0  0  0  0  0
    0.8928    0.6975    5.5742 H   0  0  0  0  0  0  0  0  0  0  0  0
    2.3952    0.2221    3.7164 H   0  0  0  0  0  0  0  0  0  0  0  0
  1  2  1  0  0  0  0
  2 19  1  0  0  0  0
  2 18  1  0  0  0  0
  2  3  1  0  0  0  0
  3 11  1  0  0  0  0
  3  4  1  0  0  0  0
  3 20  1  0  0  0  0
  4  5  1  0  0  0  0
  4 21  1  0  0  0  0
  5  6  2  0  0  0  0
  5 10  1  0  0  0  0
  6  7  1  0  0  0  0
  6 22  1  0  0  0  0
  7  8  2  0  0  0  0
  7 23  1  0  0  0  0
  8  9  1  0  0  0  0
  8 24  1  0  0  0  0
  9 10  2  0  0  0  0
  9 25  1  0  0  0  0
 10 26  1  0  0  0  0
 11 12  1  0  0  0  0
 11 27  1  0  0  0  0
 12 13  2  0  0  0  0
 12 17  1  0  0  0  0
 13 14  1  0  0  0  0
 13 28  1  0  0  0  0
 14 15  2  0  0  0  0
 14 29  1  0  0  0  0
 15 16  1  0  0  0  0
 15 30  1  0  0  0  0
 16 17  2  0  0  0  0
 16 31  1  0  0  0  0
 17 32  1  0  0  0  0
M  END
$$$$