4818081 4818080
 OpenBabel01161410593D

 44 46  0  0  1  0  0  0  0  0999 V2000
    1.3695   -1.4030   -0.1109 C   0  0  0  0  0  0  0  0  0  0  0  0
    2.4825   -0.7755    0.7144 C   0  0  0  0  0  0  0  0  0  0  0  0
    2.8085    0.6412    0.2299 C   0  0  0  0  0  0  0  0  0  0  0  0
    3.9243    1.2919    1.0662 C   0  0  3  0  0  0  0  0  0  0  0  0
    4.3809    2.5566    0.4763 N   0  0  0  0  0  0  0  0  0  0  0  0
    5.6426    2.7446   -0.0733 C   0  0  0  0  0  0  0  0  0  0  0  0
    6.7403    1.8737   -0.2145 C   0  0  0  0  0  0  0  0  0  0  0  0
    7.9166    2.3685   -0.7849 C   0  0  0  0  0  0  0  0  0  0  0  0
    7.9998    3.6853   -1.2183 C   0  0  0  0  0  0  0  0  0  0  0  0
    6.9009    4.5396   -1.0960 C   0  0  0  0  0  0  0  0  0  0  0  0
    5.7034    4.0672   -0.5138 C   0  0  0  0  0  0  0  0  0  0  0  0
    4.4382    4.6740   -0.2495 C   0  0  0  0  0  0  0  0  0  0  0  0
    3.6342    3.7215    0.3813 C   0  0  0  0  0  0  0  0  0  0  0  0
    2.3278    4.0276    0.8014 C   0  0  0  0  0  0  0  0  0  0  0  0
    1.8290    5.3085    0.5481 C   0  0  0  0  0  0  0  0  0  0  0  0
    2.6085    6.2660   -0.0909 C   0  0  0  0  0  0  0  0  0  0  0  0
    3.9131    5.9627   -0.4862 C   0  0  0  0  0  0  0  0  0  0  0  0
    3.4605    1.4758    2.4124 O   0  0  0  0  0  0  0  0  0  0  0  0
    4.4030    2.0047    3.3532 C   0  0  0  0  0  0  0  0  0  0  0  0
    3.6779    2.0679    4.6964 C   0  0  0  0  0  0  0  0  0  0  0  0
    5.6617    1.1505    3.4948 C   0  0  0  0  0  0  0  0  0  0  0  0
    1.1696   -2.4220    0.2341 H   0  0  0  0  0  0  0  0  0  0  0  0
    1.6435   -1.4501   -1.1700 H   0  0  0  0  0  0  0  0  0  0  0  0
    0.4425   -0.8267   -0.0213 H   0  0  0  0  0  0  0  0  0  0  0  0
    3.3774   -1.4041    0.6473 H   0  0  0  0  0  0  0  0  0  0  0  0
    2.1765   -0.7556    1.7667 H   0  0  0  0  0  0  0  0  0  0  0  0
    1.8907    1.2378    0.2854 H   0  0  0  0  0  0  0  0  0  0  0  0
    3.1072    0.6054   -0.8258 H   0  0  0  0  0  0  0  0  0  0  0  0
    4.7669    0.5967    1.0844 H   0  0  0  0  0  0  0  0  0  0  0  0
    6.7027    0.8408    0.1155 H   0  0  0  0  0  0  0  0  0  0  0  0
    8.7780    1.7133   -0.8873 H   0  0  0  0  0  0  0  0  0  0  0  0
    8.9223    4.0555   -1.6571 H   0  0  0  0  0  0  0  0  0  0  0  0
    6.9711    5.5670   -1.4409 H   0  0  0  0  0  0  0  0  0  0  0  0
    1.7115    3.2978    1.3174 H   0  0  0  0  0  0  0  0  0  0  0  0
    0.8169    5.5592    0.8591 H   0  0  0  0  0  0  0  0  0  0  0  0
    2.2053    7.2575   -0.2790 H   0  0  0  0  0  0  0  0  0  0  0  0
    4.5209    6.7179   -0.9775 H   0  0  0  0  0  0  0  0  0  0  0  0
    4.6753    3.0277    3.0679 H   0  0  0  0  0  0  0  0  0  0  0  0
    3.3958    1.0652    5.0320 H   0  0  0  0  0  0  0  0  0  0  0  0
    2.7526    2.6445    4.6072 H   0  0  0  0  0  0  0  0  0  0  0  0
    4.3052    2.5291    5.4644 H   0  0  0  0  0  0  0  0  0  0  0  0
    5.4091    0.0923    3.6050 H   0  0  0  0  0  0  0  0  0  0  0  0
    6.2603    1.4666    4.3535 H   0  0  0  0  0  0  0  0  0  0  0  0
    6.2977    1.2388    2.6120 H   0  0  0  0  0  0  0  0  0  0  0  0
  1  2  1  0  0  0  0
  1 22  1  0  0  0  0
  1 23  1  0  0  0  0
  1 24  1  0  0  0  0
  2  3  1  0  0  0  0
  2 25  1  0  0  0  0
  2 26  1  0  0  0  0
  3  4  1  0  0  0  0
  3 27  1  0  0  0  0
  3 28  1  0  0  0  0
  4 18  1  0  0  0  0
  4  5  1  0  0  0  0
  4 29  1  0  0  0  0
  5  6  1  0  0  0  0
  5 13  1  0  0  0  0
  6 11  1  0  0  0  0
  6  7  2  0  0  0  0
  7  8  1  0  0  0  0
  7 30  1  0  0  0  0
  8  9  2  0  0  0  0
  8 31  1  0  0  0  0
  9 10  1  0  0  0  0
  9 32  1  0  0  0  0
 10 11  2  0  0  0  0
 10 33  1  0  0  0  0
 11 12  1  0  0  0  0
 12 13  2  0  0  0  0
 12 17  1  0  0  0  0
 13 14  1  0  0  0  0
 14 15  2  0  0  0  0
 14 34  1  0  0  0  0
 15 16  1  0  0  0  0
 15 35  1  0  0  0  0
 16 17  2  0  0  0  0
 16 36  1  0  0  0  0
 17 37  1  0  0  0  0
 18 19  1  0  0  0  0
 19 21  1  0  0  0  0
 19 20  1  0  0  0  0
 19 38  1  0  0  0  0
 20 39  1  0  0  0  0
 20 40  1  0  0  0  0
 20 41  1  0  0  0  0
 21 42  1  0  0  0  0
 21 43  1  0  0  0  0
 21 44  1  0  0  0  0
M  END
$$$$