28291188 28291187
 OpenBabel01161409563D

 26 27  0  0  0  0  0  0  0  0999 V2000
   11.4540    7.6630   -2.9038 C   0  0  0  0  0  0  0  0  0  0  0  0
   11.3268    6.4038   -2.0654 C   0  0  0  0  0  0  0  0  0  0  0  0
    9.9941    5.9153   -2.2070 O   0  0  0  0  0  0  0  0  0  0  0  0
    9.6540    4.7728   -1.5230 C   0  0  0  0  0  0  0  0  0  0  0  0
   10.5328    4.0410   -0.7302 C   0  0  0  0  0  0  0  0  0  0  0  0
   10.0647    2.9018   -0.0995 C   0  0  0  0  0  0  0  0  0  0  0  0
   10.9100    2.1477    0.7140 N   0  0  0  0  0  0  0  0  0  0  0  0
    8.8003    2.4706   -0.2003 N   0  0  0  0  0  0  0  0  0  0  0  0
    7.9433    3.1707   -0.9621 C   0  0  0  0  0  0  0  0  0  0  0  0
    8.3179    4.3390   -1.6556 C   0  0  0  0  0  0  0  0  0  0  0  0
    7.3529    5.0154   -2.4383 C   0  0  0  0  0  0  0  0  0  0  0  0
    6.0448    4.5440   -2.5327 C   0  0  0  0  0  0  0  0  0  0  0  0
    5.6834    3.3927   -1.8471 C   0  0  0  0  0  0  0  0  0  0  0  0
    6.6332    2.7219   -1.0724 C   0  0  0  0  0  0  0  0  0  0  0  0
   12.4619    8.0804   -2.8293 H   0  0  0  0  0  0  0  0  0  0  0  0
   10.7327    8.4185   -2.5765 H   0  0  0  0  0  0  0  0  0  0  0  0
   11.2366    7.4488   -3.9551 H   0  0  0  0  0  0  0  0  0  0  0  0
   11.5326    6.6484   -1.0167 H   0  0  0  0  0  0  0  0  0  0  0  0
   12.0454    5.6597   -2.4283 H   0  0  0  0  0  0  0  0  0  0  0  0
   11.5633    4.3325   -0.5792 H   0  0  0  0  0  0  0  0  0  0  0  0
   11.7383    1.8505    0.2120 H   0  0  0  0  0  0  0  0  0  0  0  0
   10.3646    1.3505    1.0355 H   0  0  0  0  0  0  0  0  0  0  0  0
    7.6261    5.9198   -2.9781 H   0  0  0  0  0  0  0  0  0  0  0  0
    5.3149    5.0761   -3.1379 H   0  0  0  0  0  0  0  0  0  0  0  0
    4.6676    3.0131   -1.9097 H   0  0  0  0  0  0  0  0  0  0  0  0
    6.3421    1.8207   -0.5371 H   0  0  0  0  0  0  0  0  0  0  0  0
  1  2  1  0  0  0  0
  1 15  1  0  0  0  0
  1 16  1  0  0  0  0
  1 17  1  0  0  0  0
  2  3  1  0  0  0  0
  2 18  1  0  0  0  0
  2 19  1  0  0  0  0
  3  4  1  0  0  0  0
  4  5  2  0  0  0  0
  4 10  1  0  0  0  0
  5  6  1  0  0  0  0
  5 20  1  0  0  0  0
  6  8  2  0  0  0  0
  6  7  1  0  0  0  0
  7 21  1  0  0  0  0
  7 22  1  0  0  0  0
  8  9  1  0  0  0  0
  9 14  1  0  0  0  0
  9 10  2  0  0  0  0
 10 11  1  0  0  0  0
 11 12  2  0  0  0  0
 11 23  1  0  0  0  0
 12 13  1  0  0  0  0
 12 24  1  0  0  0  0
 13 14  2  0  0  0  0
 13 25  1  0  0  0  0
 14 26  1  0  0  0  0
M  END
$$$$