910678 910677
 OpenBabel01161409453D

 20 19  0  0  0  0  0  0  0  0999 V2000
    1.9641   -1.0681    1.1904 F   0  0  0  0  0  0  0  0  0  0  0  0
    1.4166    0.1690    1.2316 C   0  0  0  0  0  0  0  0  0  0  0  0
    2.4709    1.2640    1.3202 C   0  0  0  0  0  0  0  0  0  0  0  0
    3.3689    1.2327    0.0989 C   0  0  0  0  0  0  0  0  0  0  0  0
    4.5222    2.2065   -0.0011 C   0  0  0  0  0  0  0  0  0  0  0  0
    4.0894    3.6367    0.0275 C   0  0  0  0  0  0  0  0  0  0  0  0
    5.1154    4.4771   -0.2319 F   0  0  0  0  0  0  0  0  0  0  0  0
    3.1379    3.8846   -0.8997 F   0  0  0  0  0  0  0  0  0  0  0  0
    3.5820    4.0069    1.2192 F   0  0  0  0  0  0  0  0  0  0  0  0
    5.5319    2.0346    1.0893 C   0  0  0  0  0  0  0  0  0  0  0  0
    6.6464    2.7658    0.8580 F   0  0  0  0  0  0  0  0  0  0  0  0
    5.0735    2.4101    2.2987 F   0  0  0  0  0  0  0  0  0  0  0  0
    5.9285    0.7471    1.2008 F   0  0  0  0  0  0  0  0  0  0  0  0
    5.1435    1.9587   -1.2123 F   0  0  0  0  0  0  0  0  0  0  0  0
    3.8830   -0.0283   -0.0330 F   0  0  0  0  0  0  0  0  0  0  0  0
    2.5886    1.4010   -1.0129 F   0  0  0  0  0  0  0  0  0  0  0  0
    1.8718    2.4785    1.4246 F   0  0  0  0  0  0  0  0  0  0  0  0
    3.2079    1.1021    2.4487 F   0  0  0  0  0  0  0  0  0  0  0  0
    0.6279    0.2973    0.1407 F   0  0  0  0  0  0  0  0  0  0  0  0
    0.5973    0.1951    2.3128 F   0  0  0  0  0  0  0  0  0  0  0  0
  1  2  1  0  0  0  0
  2 20  1  0  0  0  0
  2 19  1  0  0  0  0
  2  3  1  0  0  0  0
  3 18  1  0  0  0  0
  3 17  1  0  0  0  0
  3  4  1  0  0  0  0
  4 16  1  0  0  0  0
  4 15  1  0  0  0  0
  4  5  1  0  0  0  0
  5 14  1  0  0  0  0
  5 10  1  0  0  0  0
  5  6  1  0  0  0  0
  6  9  1  0  0  0  0
  6  8  1  0  0  0  0
  6  7  1  0  0  0  0
 10 13  1  0  0  0  0
 10 12  1  0  0  0  0
 10 11  1  0  0  0  0
M  END
$$$$