508659 508658
 OpenBabel01161410133D

 28 27  0  0  0  0  0  0  0  0999 V2000
    2.2783    3.1866    0.2972 C   0  0  0  0  0  0  0  0  0  0  0  0
    3.0189    2.0097   -0.3552 C   0  0  0  0  0  0  0  0  0  0  0  0
    3.8319    1.1674    0.5500 N   0  0  0  0  0  0  0  0  0  0  0  0
    5.2812    1.5019    0.6552 C   0  0  0  0  0  0  0  0  0  0  0  0
    5.9658    1.3053   -0.7195 C   0  0  0  0  0  0  0  0  0  0  0  0
    5.5435    2.9426    1.1332 C   0  0  0  0  0  0  0  0  0  0  0  0
    6.0132    0.5416    1.6286 C   0  0  0  0  0  0  0  0  0  0  0  0
    3.1679    0.8776    1.8219 C   0  0  0  0  0  0  0  0  0  0  0  0
    2.0050    1.1141   -1.0849 C   0  0  0  0  0  0  0  0  0  0  0  0
    1.7717    3.7828   -0.4706 H   0  0  0  0  0  0  0  0  0  0  0  0
    2.9612    3.8577    0.8258 H   0  0  0  0  0  0  0  0  0  0  0  0
    1.5126    2.8551    1.0049 H   0  0  0  0  0  0  0  0  0  0  0  0
    3.6469    2.4335   -1.1442 H   0  0  0  0  0  0  0  0  0  0  0  0
    5.7568    0.3096   -1.1275 H   0  0  0  0  0  0  0  0  0  0  0  0
    7.0555    1.4006   -0.6328 H   0  0  0  0  0  0  0  0  0  0  0  0
    5.6538    2.0479   -1.4607 H   0  0  0  0  0  0  0  0  0  0  0  0
    5.0503    3.1487    2.0896 H   0  0  0  0  0  0  0  0  0  0  0  0
    5.2023    3.6838    0.4033 H   0  0  0  0  0  0  0  0  0  0  0  0
    6.6162    3.1165    1.2805 H   0  0  0  0  0  0  0  0  0  0  0  0
    5.7043    0.6942    2.6684 H   0  0  0  0  0  0  0  0  0  0  0  0
    7.0978    0.7013    1.6003 H   0  0  0  0  0  0  0  0  0  0  0  0
    5.8334   -0.5067    1.3628 H   0  0  0  0  0  0  0  0  0  0  0  0
    2.1128    0.6216    1.6783 H   0  0  0  0  0  0  0  0  0  0  0  0
    3.2192    1.7184    2.5200 H   0  0  0  0  0  0  0  0  0  0  0  0
    3.5998   -0.0049    2.3054 H   0  0  0  0  0  0  0  0  0  0  0  0
    1.2428    0.7133   -0.4074 H   0  0  0  0  0  0  0  0  0  0  0  0
    2.5051    0.2699   -1.5726 H   0  0  0  0  0  0  0  0  0  0  0  0
    1.4848    1.6817   -1.8644 H   0  0  0  0  0  0  0  0  0  0  0  0
  1  2  1  0  0  0  0
  1 10  1  0  0  0  0
  1 11  1  0  0  0  0
  1 12  1  0  0  0  0
  2  9  1  0  0  0  0
  2  3  1  0  0  0  0
  2 13  1  0  0  0  0
  3  8  1  0  0  0  0
  3  4  1  0  0  0  0
  4  7  1  0  0  0  0
  4  6  1  0  0  0  0
  4  5  1  0  0  0  0
  5 14  1  0  0  0  0
  5 15  1  0  0  0  0
  5 16  1  0  0  0  0
  6 17  1  0  0  0  0
  6 18  1  0  0  0  0
  6 19  1  0  0  0  0
  7 20  1  0  0  0  0
  7 21  1  0  0  0  0
  7 22  1  0  0  0  0
  8 23  1  0  0  0  0
  8 24  1  0  0  0  0
  8 25  1  0  0  0  0
  9 26  1  0  0  0  0
  9 27  1  0  0  0  0
  9 28  1  0  0  0  0
M  END
$$$$