535159 535158
 OpenBabel01161410573D

 28 29  0  0  0  0  0  0  0  0999 V2000
    0.9771    0.1846    0.4293 C   0  0  0  0  0  0  0  0  0  0  0  0
    2.4326    0.0399    0.2087 C   0  0  0  0  0  0  0  0  0  0  0  0
    3.3088    1.0925    0.2885 N   0  0  0  0  0  0  0  0  0  0  0  0
    3.1027    2.0609    0.4952 H   0  0  0  0  0  0  0  0  0  0  0  0
    4.5644    0.6158    0.0369 C   0  0  0  0  0  0  0  0  0  0  0  0
    4.5472   -0.6795   -0.1996 N   0  0  0  0  0  0  0  0  0  0  0  0
    3.2242   -1.0534   -0.0964 C   0  0  0  0  0  0  0  0  0  0  0  0
    2.8345   -2.4673   -0.2985 C   0  0  0  0  0  0  0  0  0  0  0  0
    5.7148    1.4475    0.0412 C   0  0  0  0  0  0  0  0  0  0  0  0
    6.9698    0.9717   -0.2159 N   0  0  0  0  0  0  0  0  0  0  0  0
    7.1755    0.0040   -0.4262 H   0  0  0  0  0  0  0  0  0  0  0  0
    7.8457    2.0244   -0.1362 C   0  0  0  0  0  0  0  0  0  0  0  0
    7.0554    3.1152    0.1801 C   0  0  0  0  0  0  0  0  0  0  0  0
    5.7327    2.7419    0.2842 N   0  0  0  0  0  0  0  0  0  0  0  0
    7.4596    4.5233    0.3951 C   0  0  0  0  0  0  0  0  0  0  0  0
    9.3009    1.8826   -0.3573 C   0  0  0  0  0  0  0  0  0  0  0  0
    0.6927    1.2325    0.5696 H   0  0  0  0  0  0  0  0  0  0  0  0
    0.6701   -0.3725    1.3199 H   0  0  0  0  0  0  0  0  0  0  0  0
    0.4196   -0.2035   -0.4288 H   0  0  0  0  0  0  0  0  0  0  0  0
    1.7526   -2.5719   -0.4232 H   0  0  0  0  0  0  0  0  0  0  0  0
    3.1410   -3.0692    0.5623 H   0  0  0  0  0  0  0  0  0  0  0  0
    3.3188   -2.8720   -1.1927 H   0  0  0  0  0  0  0  0  0  0  0  0
    6.6203    5.1191    0.7667 H   0  0  0  0  0  0  0  0  0  0  0  0
    7.8055    4.9677   -0.5431 H   0  0  0  0  0  0  0  0  0  0  0  0
    8.2696    4.5840    1.1285 H   0  0  0  0  0  0  0  0  0  0  0  0
    9.5482    0.9112   -0.7975 H   0  0  0  0  0  0  0  0  0  0  0  0
    9.8398    1.9744    0.5908 H   0  0  0  0  0  0  0  0  0  0  0  0
    9.6640    2.6611   -1.0358 H   0  0  0  0  0  0  0  0  0  0  0  0
  1  2  1  0  0  0  0
  1 17  1  0  0  0  0
  1 18  1  0  0  0  0
  1 19  1  0  0  0  0
  2  3  1  0  0  0  0
  2  7  2  0  0  0  0
  3  5  1  0  0  0  0
  3  4  1  0  0  0  0
  5  6  2  0  0  0  0
  5  9  1  0  0  0  0
  6  7  1  0  0  0  0
  7  8  1  0  0  0  0
  8 20  1  0  0  0  0
  8 21  1  0  0  0  0
  8 22  1  0  0  0  0
  9 10  1  0  0  0  0
  9 14  2  0  0  0  0
 10 12  1  0  0  0  0
 10 11  1  0  0  0  0
 12 13  2  0  0  0  0
 12 16  1  0  0  0  0
 13 14  1  0  0  0  0
 13 15  1  0  0  0  0
 15 23  1  0  0  0  0
 15 24  1  0  0  0  0
 15 25  1  0  0  0  0
 16 26  1  0  0  0  0
 16 27  1  0  0  0  0
 16 28  1  0  0  0  0
M  END
$$$$