26731982 26731981
 OpenBabel01161410423D

 22 21  0  0  1  0  0  0  0  0999 V2000
    0.9758    4.6803    0.2909 C   0  0  0  0  0  0  0  0  0  0  0  0
    0.4650    3.2471    0.3180 C   0  0  0  0  0  0  0  0  0  0  0  0
    1.0393    2.3534   -0.8036 C   0  0  3  0  0  0  0  0  0  0  0  0
    2.5907    2.2729   -0.8089 C   0  0  2  0  0  0  0  0  0  0  0  0
    2.9925    3.2829   -0.9497 H   0  0  0  0  0  0  0  0  0  0  0  0
    3.0610    1.4724   -1.9450 N   0  0  0  0  0  0  0  0  0  0  0  0
    3.1962    1.7006    0.4732 C   0  0  0  0  0  0  0  0  0  0  0  0
    0.3648    0.9741   -0.7278 C   0  0  0  0  0  0  0  0  0  0  0  0
    0.4324    5.2848    1.0242 H   0  0  0  0  0  0  0  0  0  0  0  0
    0.8293    5.1319   -0.6951 H   0  0  0  0  0  0  0  0  0  0  0  0
    2.0381    4.7339    0.5453 H   0  0  0  0  0  0  0  0  0  0  0  0
   -0.6278    3.2781    0.2175 H   0  0  0  0  0  0  0  0  0  0  0  0
    0.6679    2.8091    1.3022 H   0  0  0  0  0  0  0  0  0  0  0  0
    0.7325    2.8028   -1.7593 H   0  0  0  0  0  0  0  0  0  0  0  0
    4.0791    1.4965   -1.9854 H   0  0  0  0  0  0  0  0  0  0  0  0
    2.7279    1.8847   -2.8154 H   0  0  0  0  0  0  0  0  0  0  0  0
    4.2911    1.6931    0.4147 H   0  0  0  0  0  0  0  0  0  0  0  0
    2.8703    0.6723    0.6593 H   0  0  0  0  0  0  0  0  0  0  0  0
    2.9293    2.3064    1.3438 H   0  0  0  0  0  0  0  0  0  0  0  0
    0.5850    0.4676    0.2170 H   0  0  0  0  0  0  0  0  0  0  0  0
    0.6829    0.3240   -1.5484 H   0  0  0  0  0  0  0  0  0  0  0  0
   -0.7236    1.0761   -0.8015 H   0  0  0  0  0  0  0  0  0  0  0  0
  1  2  1  0  0  0  0
  1  9  1  0  0  0  0
  1 10  1  0  0  0  0
  1 11  1  0  0  0  0
  2  3  1  0  0  0  0
  2 12  1  0  0  0  0
  2 13  1  0  0  0  0
  3  8  1  0  0  0  0
  3 14  1  0  0  0  0
  4  6  1  0  0  0  0
  4  5  1  6  0  0  0
  4  7  1  0  0  0  0
  4  3  1  0  0  0  0
  6 15  1  0  0  0  0
  6 16  1  0  0  0  0
  7 17  1  0  0  0  0
  7 18  1  0  0  0  0
  7 19  1  0  0  0  0
  8 20  1  0  0  0  0
  8 21  1  0  0  0  0
  8 22  1  0  0  0  0
M  END
$$$$