3139258 3139257
 OpenBabel01161410133D

 40 42  0  0  0  0  0  0  0  0999 V2000
    4.6470   -1.8389    1.5773 F   0  0  0  0  0  0  0  0  0  0  0  0
    4.1654   -1.1207    0.5347 C   0  0  0  0  0  0  0  0  0  0  0  0
    2.7652   -1.3188    0.4344 O   0  0  0  0  0  0  0  0  0  0  0  0
    2.3459   -2.5954    0.1919 C   0  0  0  0  0  0  0  0  0  0  0  0
    3.1070   -3.6206   -0.3662 C   0  0  0  0  0  0  0  0  0  0  0  0
    2.5387   -4.8868   -0.5636 C   0  0  0  0  0  0  0  0  0  0  0  0
    1.2072   -5.1501   -0.2099 C   0  0  0  0  0  0  0  0  0  0  0  0
    0.4571   -4.1155    0.3586 C   0  0  0  0  0  0  0  0  0  0  0  0
    1.0173   -2.8463    0.5384 C   0  0  0  0  0  0  0  0  0  0  0  0
    0.6720   -6.4978   -0.3950 C   0  0  0  0  0  0  0  0  0  0  0  0
    1.5252   -7.5913   -0.2757 N   0  0  0  0  0  0  0  0  0  0  0  0
    0.8739   -8.7141   -0.4460 C   0  0  0  0  0  0  0  0  0  0  0  0
   -0.8060   -8.5309   -0.7507 S   0  0  0  0  0  0  0  0  0  0  0  0
   -0.6343   -6.8200   -0.7304 C   0  0  0  0  0  0  0  0  0  0  0  0
   -1.8132   -5.9699   -1.0536 C   0  0  0  0  0  0  0  0  0  0  0  0
    1.4164   -9.9503   -0.4150 N   0  0  0  0  0  0  0  0  0  0  0  0
    2.8123  -10.1391   -0.0886 C   0  0  0  0  0  0  0  0  0  0  0  0
    3.0419  -10.2839    1.4106 C   0  0  0  0  0  0  0  0  0  0  0  0
    4.3853  -10.9920    1.4746 C   0  0  0  0  0  0  0  0  0  0  0  0
    4.3144  -12.0222    0.3552 C   0  0  0  0  0  0  0  0  0  0  0  0
    3.3251  -11.4643   -0.6689 C   0  0  0  0  0  0  0  0  0  0  0  0
    4.3653    0.1869    0.8400 F   0  0  0  0  0  0  0  0  0  0  0  0
    4.7101   -1.3498   -0.3869 H   0  0  0  0  0  0  0  0  0  0  0  0
    4.1417   -3.4850   -0.6613 H   0  0  0  0  0  0  0  0  0  0  0  0
    3.1502   -5.6810   -0.9909 H   0  0  0  0  0  0  0  0  0  0  0  0
   -0.5615   -4.2789    0.6971 H   0  0  0  0  0  0  0  0  0  0  0  0
    0.4159   -2.0539    0.9800 H   0  0  0  0  0  0  0  0  0  0  0  0
   -1.5109   -5.0680   -1.5949 H   0  0  0  0  0  0  0  0  0  0  0  0
   -2.3329   -5.6722   -0.1374 H   0  0  0  0  0  0  0  0  0  0  0  0
   -2.5317   -6.4965   -1.6913 H   0  0  0  0  0  0  0  0  0  0  0  0
    0.7963  -10.7413   -0.3004 H   0  0  0  0  0  0  0  0  0  0  0  0
    3.4337   -9.3267   -0.4886 H   0  0  0  0  0  0  0  0  0  0  0  0
    2.2636  -10.8993    1.8782 H   0  0  0  0  0  0  0  0  0  0  0  0
    3.0609   -9.3173    1.9241 H   0  0  0  0  0  0  0  0  0  0  0  0
    5.1959  -10.2801    1.2750 H   0  0  0  0  0  0  0  0  0  0  0  0
    4.5722  -11.4513    2.4501 H   0  0  0  0  0  0  0  0  0  0  0  0
    5.2994  -12.2069   -0.0861 H   0  0  0  0  0  0  0  0  0  0  0  0
    3.9435  -12.9782    0.7432 H   0  0  0  0  0  0  0  0  0  0  0  0
    3.8068  -11.3007   -1.6399 H   0  0  0  0  0  0  0  0  0  0  0  0
    2.5175  -12.1876   -0.8336 H   0  0  0  0  0  0  0  0  0  0  0  0
  1  2  1  0  0  0  0
  2 22  1  0  0  0  0
  2  3  1  0  0  0  0
  2 23  1  0  0  0  0
  3  4  1  0  0  0  0
  4  5  2  0  0  0  0
  4  9  1  0  0  0  0
  5  6  1  0  0  0  0
  5 24  1  0  0  0  0
  6  7  2  0  0  0  0
  6 25  1  0  0  0  0
  7  8  1  0  0  0  0
  7 10  1  0  0  0  0
  8  9  2  0  0  0  0
  8 26  1  0  0  0  0
  9 27  1  0  0  0  0
 10 14  2  0  0  0  0
 10 11  1  0  0  0  0
 11 12  2  0  0  0  0
 12 13  1  0  0  0  0
 12 16  1  0  0  0  0
 13 14  1  0  0  0  0
 14 15  1  0  0  0  0
 15 28  1  0  0  0  0
 15 29  1  0  0  0  0
 15 30  1  0  0  0  0
 16 17  1  0  0  0  0
 16 31  1  0  0  0  0
 17 21  1  0  0  0  0
 17 18  1  0  0  0  0
 17 32  1  0  0  0  0
 18 19  1  0  0  0  0
 18 33  1  0  0  0  0
 18 34  1  0  0  0  0
 19 20  1  0  0  0  0
 19 35  1  0  0  0  0
 19 36  1  0  0  0  0
 20 21  1  0  0  0  0
 20 37  1  0  0  0  0
 20 38  1  0  0  0  0
 21 39  1  0  0  0  0
 21 40  1  0  0  0  0
M  END
$$$$