2349805 2349804
 OpenBabel01161410563D

 49 50  0  0  1  0  0  0  0  0999 V2000
    4.4258   -1.0391   -0.2324 O   0  0  0  0  0  0  0  0  0  0  0  0
    3.4151   -0.4331    0.5853 C   0  0  3  0  0  0  0  0  0  0  0  0
    3.4148   -1.1490    1.9400 C   0  0  0  0  0  0  0  0  0  0  0  0
    2.4069   -0.6055    2.7935 O   0  0  0  0  0  0  0  0  0  0  0  0
    2.2829   -1.1922    4.0253 C   0  0  0  0  0  0  0  0  0  0  0  0
    3.0765   -2.2194    4.5237 C   0  0  0  0  0  0  0  0  0  0  0  0
    2.8470   -2.7375    5.8046 C   0  0  0  0  0  0  0  0  0  0  0  0
    1.8093   -2.2575    6.6226 C   0  0  0  0  0  0  0  0  0  0  0  0
    1.0335   -1.2036    6.1112 C   0  0  0  0  0  0  0  0  0  0  0  0
    1.2649   -0.6825    4.8298 C   0  0  0  0  0  0  0  0  0  0  0  0
    1.5816   -2.8326    8.0323 C   0  0  0  0  0  0  0  0  0  0  0  0
    1.8960   -4.3464    8.1016 C   0  0  0  0  0  0  0  0  0  0  0  0
    2.5113   -2.0911    9.0121 C   0  0  0  0  0  0  0  0  0  0  0  0
    0.1239   -2.6682    8.5198 C   0  0  0  0  0  0  0  0  0  0  0  0
    3.6890    1.0694    0.7408 C   0  0  0  0  0  0  0  0  0  0  0  0
    3.7694    1.8609   -0.9092 S   0  0  0  0  0  0  0  0  0  0  0  0
    4.1404    3.5595   -0.3765 C   0  0  0  0  0  0  0  0  0  0  0  0
    4.3370    4.4713   -1.5619 C   0  0  0  0  0  0  0  0  0  0  0  0
    3.2412    5.1249   -2.1466 C   0  0  0  0  0  0  0  0  0  0  0  0
    3.4202    5.9566   -3.2545 C   0  0  0  0  0  0  0  0  0  0  0  0
    4.6946    6.1349   -3.7877 C   0  0  0  0  0  0  0  0  0  0  0  0
    5.7914    5.4857   -3.2257 C   0  0  0  0  0  0  0  0  0  0  0  0
    5.6129    4.6534   -2.1180 C   0  0  0  0  0  0  0  0  0  0  0  0
    4.9146    7.1598   -5.1523 Cl  0  0  0  0  0  0  0  0  0  0  0  0
    4.4807   -0.4884   -1.0384 H   0  0  0  0  0  0  0  0  0  0  0  0
    2.4436   -0.5847    0.0989 H   0  0  0  0  0  0  0  0  0  0  0  0
    4.4052   -1.0395    2.4010 H   0  0  0  0  0  0  0  0  0  0  0  0
    3.2304   -2.2171    1.7651 H   0  0  0  0  0  0  0  0  0  0  0  0
    3.8918   -2.6487    3.9498 H   0  0  0  0  0  0  0  0  0  0  0  0
    3.5112   -3.5265    6.1474 H   0  0  0  0  0  0  0  0  0  0  0  0
    0.2336   -0.7568    6.6954 H   0  0  0  0  0  0  0  0  0  0  0  0
    0.6409    0.1285    4.4629 H   0  0  0  0  0  0  0  0  0  0  0  0
    1.3303   -4.9034    7.3456 H   0  0  0  0  0  0  0  0  0  0  0  0
    1.6371   -4.7606    9.0833 H   0  0  0  0  0  0  0  0  0  0  0  0
    2.9600   -4.5583    7.9516 H   0  0  0  0  0  0  0  0  0  0  0  0
    2.2911   -1.0173    9.0364 H   0  0  0  0  0  0  0  0  0  0  0  0
    3.5647   -2.2025    8.7292 H   0  0  0  0  0  0  0  0  0  0  0  0
    2.4003   -2.4765   10.0321 H   0  0  0  0  0  0  0  0  0  0  0  0
   -0.1480   -1.6172    8.6654 H   0  0  0  0  0  0  0  0  0  0  0  0
   -0.0278   -3.1634    9.4866 H   0  0  0  0  0  0  0  0  0  0  0  0
   -0.5848   -3.1077    7.8082 H   0  0  0  0  0  0  0  0  0  0  0  0
    4.6553    1.2263    1.2314 H   0  0  0  0  0  0  0  0  0  0  0  0
    2.9023    1.5516    1.3287 H   0  0  0  0  0  0  0  0  0  0  0  0
    5.0439    3.5598    0.2435 H   0  0  0  0  0  0  0  0  0  0  0  0
    3.3189    3.9317    0.2456 H   0  0  0  0  0  0  0  0  0  0  0  0
    2.2393    4.9825   -1.7465 H   0  0  0  0  0  0  0  0  0  0  0  0
    2.5630    6.4556   -3.6980 H   0  0  0  0  0  0  0  0  0  0  0  0
    6.7844    5.6178   -3.6468 H   0  0  0  0  0  0  0  0  0  0  0  0
    6.4751    4.1414   -1.6954 H   0  0  0  0  0  0  0  0  0  0  0  0
  1  2  1  0  0  0  0
  1 25  1  0  0  0  0
  2 15  1  0  0  0  0
  2  3  1  0  0  0  0
  2 26  1  0  0  0  0
  3  4  1  0  0  0  0
  3 27  1  0  0  0  0
  3 28  1  0  0  0  0
  4  5  1  0  0  0  0
  5  6  2  0  0  0  0
  5 10  1  0  0  0  0
  6  7  1  0  0  0  0
  6 29  1  0  0  0  0
  7  8  2  0  0  0  0
  7 30  1  0  0  0  0
  8  9  1  0  0  0  0
  8 11  1  0  0  0  0
  9 10  2  0  0  0  0
  9 31  1  0  0  0  0
 10 32  1  0  0  0  0
 11 14  1  0  0  0  0
 11 13  1  0  0  0  0
 11 12  1  0  0  0  0
 12 33  1  0  0  0  0
 12 34  1  0  0  0  0
 12 35  1  0  0  0  0
 13 36  1  0  0  0  0
 13 37  1  0  0  0  0
 13 38  1  0  0  0  0
 14 39  1  0  0  0  0
 14 40  1  0  0  0  0
 14 41  1  0  0  0  0
 15 16  1  0  0  0  0
 15 42  1  0  0  0  0
 15 43  1  0  0  0  0
 16 17  1  0  0  0  0
 17 18  1  0  0  0  0
 17 44  1  0  0  0  0
 17 45  1  0  0  0  0
 18 19  2  0  0  0  0
 18 23  1  0  0  0  0
 19 20  1  0  0  0  0
 19 46  1  0  0  0  0
 20 21  2  0  0  0  0
 20 47  1  0  0  0  0
 21 22  1  0  0  0  0
 21 24  1  0  0  0  0
 22 23  2  0  0  0  0
 22 48  1  0  0  0  0
 23 49  1  0  0  0  0
M  END
$$$$