36773798 36773797
 OpenBabel01161410043D

 30 31  0  0  0  0  0  0  0  0999 V2000
    8.5833    0.7809    9.2341 O   0  0  0  0  0  0  0  0  0  0  0  0
    9.4103    0.3637    8.1517 C   0  0  0  0  0  0  0  0  0  0  0  0
    8.7305    0.6189    6.8287 C   0  0  0  0  0  0  0  0  0  0  0  0
    8.7342    1.9474    6.3471 C   0  0  0  0  0  0  0  0  0  0  0  0
    8.1385    2.2779    5.1316 C   0  0  0  0  0  0  0  0  0  0  0  0
    7.5264    1.2864    4.3755 C   0  0  0  0  0  0  0  0  0  0  0  0
    7.5004   -0.0269    4.8447 C   0  0  0  0  0  0  0  0  0  0  0  0
    8.0849   -0.3831    6.0752 C   0  0  0  0  0  0  0  0  0  0  0  0
    8.0026   -2.0993    6.5921 S   0  0  0  0  0  0  0  0  0  0  0  0
    6.7597   -1.9539    7.9159 C   0  0  0  0  0  0  0  0  0  0  0  0
    6.4173   -3.2633    8.5843 C   0  0  0  0  0  0  0  0  0  0  0  0
    5.9022   -4.3431    7.8538 C   0  0  0  0  0  0  0  0  0  0  0  0
    5.5213   -5.5213    8.4985 C   0  0  0  0  0  0  0  0  0  0  0  0
    5.6388   -5.6324    9.8831 C   0  0  0  0  0  0  0  0  0  0  0  0
    6.1472   -4.5677   10.6233 C   0  0  0  0  0  0  0  0  0  0  0  0
    6.5357   -3.3915    9.9793 C   0  0  0  0  0  0  0  0  0  0  0  0
    6.8875   -0.9507    4.0885 F   0  0  0  0  0  0  0  0  0  0  0  0
    7.7494    1.1195    8.8702 H   0  0  0  0  0  0  0  0  0  0  0  0
    9.6780   -0.6844    8.3002 H   0  0  0  0  0  0  0  0  0  0  0  0
   10.3479    0.9284    8.2045 H   0  0  0  0  0  0  0  0  0  0  0  0
    9.2169    2.7331    6.9273 H   0  0  0  0  0  0  0  0  0  0  0  0
    8.1599    3.3043    4.7735 H   0  0  0  0  0  0  0  0  0  0  0  0
    7.0655    1.5206    3.4207 H   0  0  0  0  0  0  0  0  0  0  0  0
    5.8399   -1.5105    7.5142 H   0  0  0  0  0  0  0  0  0  0  0  0
    7.1461   -1.2617    8.6710 H   0  0  0  0  0  0  0  0  0  0  0  0
    5.7897   -4.2723    6.7740 H   0  0  0  0  0  0  0  0  0  0  0  0
    5.1246   -6.3528    7.9182 H   0  0  0  0  0  0  0  0  0  0  0  0
    5.3328   -6.5465   10.3831 H   0  0  0  0  0  0  0  0  0  0  0  0
    6.2357   -4.6502   11.7030 H   0  0  0  0  0  0  0  0  0  0  0  0
    6.9230   -2.5691   10.5785 H   0  0  0  0  0  0  0  0  0  0  0  0
  1  2  1  0  0  0  0
  1 18  1  0  0  0  0
  2  3  1  0  0  0  0
  2 19  1  0  0  0  0
  2 20  1  0  0  0  0
  3  8  1  0  0  0  0
  3  4  2  0  0  0  0
  4  5  1  0  0  0  0
  4 21  1  0  0  0  0
  5  6  2  0  0  0  0
  5 22  1  0  0  0  0
  6  7  1  0  0  0  0
  6 23  1  0  0  0  0
  7  8  2  0  0  0  0
  7 17  1  0  0  0  0
  8  9  1  0  0  0  0
  9 10  1  0  0  0  0
 10 11  1  0  0  0  0
 10 24  1  0  0  0  0
 10 25  1  0  0  0  0
 11 12  2  0  0  0  0
 11 16  1  0  0  0  0
 12 13  1  0  0  0  0
 12 26  1  0  0  0  0
 13 14  2  0  0  0  0
 13 27  1  0  0  0  0
 14 15  1  0  0  0  0
 14 28  1  0  0  0  0
 15 16  2  0  0  0  0
 15 29  1  0  0  0  0
 16 30  1  0  0  0  0
M  END
$$$$