45772957 45772956
 OpenBabel01161410193D

 26 27  0  0  1  0  0  0  0  0999 V2000
    1.0533   -0.2234    0.0605 Cl  0  0  0  0  0  0  0  0  0  0  0  0
    2.7649   -0.0397    0.0627 C   0  0  0  0  0  0  0  0  0  0  0  0
    3.5819   -1.1776    0.0508 C   0  0  0  0  0  0  0  0  0  0  0  0
    4.9726   -1.0449    0.0505 C   0  0  0  0  0  0  0  0  0  0  0  0
    5.5189    0.2310    0.0639 C   0  0  0  0  0  0  0  0  0  0  0  0
    4.7050    1.3597    0.0794 C   0  0  0  0  0  0  0  0  0  0  0  0
    3.3206    1.2396    0.0760 C   0  0  0  0  0  0  0  0  0  0  0  0
    5.5005    2.6286    0.0874 C   0  0  3  0  0  0  0  0  0  0  0  0
    5.1691    3.4128    1.2233 O   0  0  0  0  0  0  0  0  0  0  0  0
    6.9902    2.1443    0.1030 C   0  0  0  0  0  0  0  0  0  0  0  0
    6.9706    0.5843    0.0586 C   0  0  0  0  0  0  0  0  0  0  0  0
    7.7109    2.6779   -1.1499 C   0  0  0  0  0  0  0  0  0  0  0  0
    7.7648    2.6177    1.3450 C   0  0  0  0  0  0  0  0  0  0  0  0
    3.1370   -2.1692    0.0397 H   0  0  0  0  0  0  0  0  0  0  0  0
    5.6083   -1.9255    0.0381 H   0  0  0  0  0  0  0  0  0  0  0  0
    2.6895    2.1235    0.0822 H   0  0  0  0  0  0  0  0  0  0  0  0
    5.2734    3.2120   -0.8117 H   0  0  0  0  0  0  0  0  0  0  0  0
    4.8410    2.8118    1.9142 H   0  0  0  0  0  0  0  0  0  0  0  0
    7.4612    0.1435    0.9334 H   0  0  0  0  0  0  0  0  0  0  0  0
    7.4458    0.1905   -0.8465 H   0  0  0  0  0  0  0  0  0  0  0  0
    7.2136    2.3434   -2.0673 H   0  0  0  0  0  0  0  0  0  0  0  0
    8.7490    2.3293   -1.1876 H   0  0  0  0  0  0  0  0  0  0  0  0
    7.7247    3.7734   -1.1573 H   0  0  0  0  0  0  0  0  0  0  0  0
    7.3053    2.2462    2.2675 H   0  0  0  0  0  0  0  0  0  0  0  0
    7.7997    3.7113    1.3986 H   0  0  0  0  0  0  0  0  0  0  0  0
    8.7989    2.2553    1.3240 H   0  0  0  0  0  0  0  0  0  0  0  0
  1  2  1  0  0  0  0
  2  3  2  0  0  0  0
  2  7  1  0  0  0  0
  3  4  1  0  0  0  0
  3 14  1  0  0  0  0
  4  5  2  0  0  0  0
  4 15  1  0  0  0  0
  5  6  1  0  0  0  0
  5 11  1  0  0  0  0
  6  7  2  0  0  0  0
  6  8  1  0  0  0  0
  7 16  1  0  0  0  0
  8 10  1  0  0  0  0
  8  9  1  0  0  0  0
  8 17  1  0  0  0  0
  9 18  1  0  0  0  0
 10 11  1  0  0  0  0
 10 13  1  0  0  0  0
 10 12  1  0  0  0  0
 11 19  1  0  0  0  0
 11 20  1  0  0  0  0
 12 21  1  0  0  0  0
 12 22  1  0  0  0  0
 12 23  1  0  0  0  0
 13 24  1  0  0  0  0
 13 25  1  0  0  0  0
 13 26  1  0  0  0  0
M  END
$$$$