5860741 5860740
 OpenBabel01161410493D

 57 58  0  0  0  0  0  0  0  0999 V2000
   -2.6588   -6.5916   -6.9281 C   0  0  0  0  0  0  0  0  0  0  0  0
   -1.5406   -5.4525   -5.9518 Si  0  0  0  0  0  0  0  0  0  0  0  0
   -0.5028   -6.3160   -5.3346 H   0  0  0  0  0  0  0  0  0  0  0  0
   -0.6752   -4.2135   -7.1054 C   0  0  0  0  0  0  0  0  0  0  0  0
   -0.4279   -4.5505   -8.3963 C   0  0  0  0  0  0  0  0  0  0  0  0
   -0.1121   -3.7156   -9.5653 C   0  0  0  0  0  0  0  0  0  0  0  0
    0.0546   -2.3732   -9.6702 C   0  0  0  0  0  0  0  0  0  0  0  0
    0.0569   -1.4897   -8.5022 C   0  0  0  0  0  0  0  0  0  0  0  0
   -1.0947   -1.8106   -7.5550 C   0  0  0  0  0  0  0  0  0  0  0  0
   -0.5030   -2.8449   -6.5968 C   0  0  0  0  0  0  0  0  0  0  0  0
    0.3888   -2.4138   -5.6567 C   0  0  0  0  0  0  0  0  0  0  0  0
    0.7035   -0.9724   -5.5751 C   0  0  0  0  0  0  0  0  0  0  0  0
    1.0424   -0.2263   -6.6500 C   0  0  0  0  0  0  0  0  0  0  0  0
    1.1097   -0.7648   -8.0216 C   0  0  0  0  0  0  0  0  0  0  0  0
    2.8258   -0.6140   -8.7885 Si  0  0  0  0  0  0  0  0  0  0  0  0
    2.7161   -0.2053  -10.2129 H   0  0  0  0  0  0  0  0  0  0  0  0
    3.9185    0.5968   -7.8893 C   0  0  0  0  0  0  0  0  0  0  0  0
    3.6471   -2.3000   -8.7940 C   0  0  0  0  0  0  0  0  0  0  0  0
    1.5587   -3.4412   -4.5884 Si  0  0  0  0  0  0  0  0  0  0  0  0
    1.7491   -4.8005   -5.1533 H   0  0  0  0  0  0  0  0  0  0  0  0
    3.2230   -2.6000   -4.4167 C   0  0  0  0  0  0  0  0  0  0  0  0
    0.8427   -3.6495   -2.8679 C   0  0  0  0  0  0  0  0  0  0  0  0
   -0.0174   -1.5167  -11.3642 Si  0  0  0  0  0  0  0  0  0  0  0  0
    0.1884   -0.0529  -11.2165 H   0  0  0  0  0  0  0  0  0  0  0  0
    1.2430   -2.2325  -12.5332 C   0  0  0  0  0  0  0  0  0  0  0  0
   -1.7310   -1.7702  -12.0838 C   0  0  0  0  0  0  0  0  0  0  0  0
   -2.5186   -4.6136   -4.6101 C   0  0  0  0  0  0  0  0  0  0  0  0
   -3.4074   -6.0179   -7.4823 H   0  0  0  0  0  0  0  0  0  0  0  0
   -3.1871   -7.2768   -6.2575 H   0  0  0  0  0  0  0  0  0  0  0  0
   -2.0902   -7.1946   -7.6428 H   0  0  0  0  0  0  0  0  0  0  0  0
   -0.6004   -5.5849   -8.7026 H   0  0  0  0  0  0  0  0  0  0  0  0
   -0.1493   -4.3025  -10.4862 H   0  0  0  0  0  0  0  0  0  0  0  0
   -1.9806   -2.1906   -8.0827 H   0  0  0  0  0  0  0  0  0  0  0  0
   -1.4693   -0.9198   -7.0338 H   0  0  0  0  0  0  0  0  0  0  0  0
    0.6710   -0.5071   -4.5923 H   0  0  0  0  0  0  0  0  0  0  0  0
    1.2724    0.8289   -6.5164 H   0  0  0  0  0  0  0  0  0  0  0  0
    4.0811    0.2905   -6.8516 H   0  0  0  0  0  0  0  0  0  0  0  0
    3.4777    1.5976   -7.8856 H   0  0  0  0  0  0  0  0  0  0  0  0
    4.8977    0.6642   -8.3741 H   0  0  0  0  0  0  0  0  0  0  0  0
    3.6871   -2.7171   -7.7832 H   0  0  0  0  0  0  0  0  0  0  0  0
    4.6733   -2.2266   -9.1694 H   0  0  0  0  0  0  0  0  0  0  0  0
    3.1049   -3.0039   -9.4298 H   0  0  0  0  0  0  0  0  0  0  0  0
    3.1364   -1.6687   -3.8492 H   0  0  0  0  0  0  0  0  0  0  0  0
    3.6491   -2.3636   -5.3962 H   0  0  0  0  0  0  0  0  0  0  0  0
    3.9283   -3.2504   -3.8900 H   0  0  0  0  0  0  0  0  0  0  0  0
    0.3485   -2.7332   -2.5361 H   0  0  0  0  0  0  0  0  0  0  0  0
    1.6340   -3.8859   -2.1524 H   0  0  0  0  0  0  0  0  0  0  0  0
    0.1169   -4.4643   -2.8411 H   0  0  0  0  0  0  0  0  0  0  0  0
    1.0701   -3.3006  -12.6997 H   0  0  0  0  0  0  0  0  0  0  0  0
    2.2571   -2.1090  -12.1445 H   0  0  0  0  0  0  0  0  0  0  0  0
    1.1934   -1.7295  -13.5050 H   0  0  0  0  0  0  0  0  0  0  0  0
   -1.9727   -2.8339  -12.1546 H   0  0  0  0  0  0  0  0  0  0  0  0
   -1.7941   -1.3385  -13.0862 H   0  0  0  0  0  0  0  0  0  0  0  0
   -2.4863   -1.2881  -11.4571 H   0  0  0  0  0  0  0  0  0  0  0  0
   -3.2959   -3.9704   -5.0363 H   0  0  0  0  0  0  0  0  0  0  0  0
   -1.8901   -3.9939   -3.9686 H   0  0  0  0  0  0  0  0  0  0  0  0
   -3.0112   -5.3563   -3.9737 H   0  0  0  0  0  0  0  0  0  0  0  0
  1  2  1  0  0  0  0
  1 28  1  0  0  0  0
  1 29  1  0  0  0  0
  1 30  1  0  0  0  0
  2 27  1  0  0  0  0
  2  4  1  0  0  0  0
  2  3  1  0  0  0  0
  4  5  2  0  0  0  0
  4 10  1  0  0  0  0
  5  6  1  0  0  0  0
  5 31  1  0  0  0  0
  6  7  2  0  0  0  0
  6 32  1  0  0  0  0
  7 23  1  0  0  0  0
  7  8  1  0  0  0  0
  8  9  1  0  0  0  0
  8 14  2  0  0  0  0
  9 10  1  0  0  0  0
  9 33  1  0  0  0  0
  9 34  1  0  0  0  0
 10 11  2  0  0  0  0
 11 12  1  0  0  0  0
 11 19  1  0  0  0  0
 12 13  2  0  0  0  0
 12 35  1  0  0  0  0
 13 14  1  0  0  0  0
 13 36  1  0  0  0  0
 14 15  1  0  0  0  0
 15 18  1  0  0  0  0
 15 17  1  0  0  0  0
 15 16  1  0  0  0  0
 17 37  1  0  0  0  0
 17 38  1  0  0  0  0
 17 39  1  0  0  0  0
 18 40  1  0  0  0  0
 18 41  1  0  0  0  0
 18 42  1  0  0  0  0
 19 22  1  0  0  0  0
 19 21  1  0  0  0  0
 19 20  1  0  0  0  0
 21 43  1  0  0  0  0
 21 44  1  0  0  0  0
 21 45  1  0  0  0  0
 22 46  1  0  0  0  0
 22 47  1  0  0  0  0
 22 48  1  0  0  0  0
 23 26  1  0  0  0  0
 23 25  1  0  0  0  0
 23 24  1  0  0  0  0
 25 49  1  0  0  0  0
 25 50  1  0  0  0  0
 25 51  1  0  0  0  0
 26 52  1  0  0  0  0
 26 53  1  0  0  0  0
 26 54  1  0  0  0  0
 27 55  1  0  0  0  0
 27 56  1  0  0  0  0
 27 57  1  0  0  0  0
M  END
$$$$