888317 888316
 OpenBabel01161410063D

 21 22  0  0  0  0  0  0  0  0999 V2000
    1.1709    0.0646    0.9919 N   0  0  0  0  0  0  0  0  0  0  0  0
    2.4069    0.1053    0.4817 C   0  0  0  0  0  0  0  0  0  0  0  0
    3.4251    0.9594    0.9484 C   0  0  0  0  0  0  0  0  0  0  0  0
    4.5103    0.6705    0.1541 C   0  0  0  0  0  0  0  0  0  0  0  0
    4.0928   -0.3015   -0.7078 N   0  0  0  0  0  0  0  0  0  0  0  0
    4.6196   -0.7598   -1.4433 H   0  0  0  0  0  0  0  0  0  0  0  0
    2.8149   -0.6671   -0.5178 N   0  0  0  0  0  0  0  0  0  0  0  0
    5.8976    1.2741    0.1789 C   0  0  0  0  0  0  0  0  0  0  0  0
    5.9366    2.8329    0.2185 C   0  0  0  0  0  0  0  0  0  0  0  0
    7.1407    2.7100    1.1697 C   0  0  0  0  0  0  0  0  0  0  0  0
    6.5557    1.3499    1.5911 C   0  0  0  0  0  0  0  0  0  0  0  0
    0.9795    0.4147    1.9204 H   0  0  0  0  0  0  0  0  0  0  0  0
    0.5962   -0.7224    0.7148 H   0  0  0  0  0  0  0  0  0  0  0  0
    3.3675    1.6851    1.7459 H   0  0  0  0  0  0  0  0  0  0  0  0
    6.5646    0.8478   -0.5819 H   0  0  0  0  0  0  0  0  0  0  0  0
    5.0698    3.3233    0.6771 H   0  0  0  0  0  0  0  0  0  0  0  0
    6.1462    3.3214   -0.7375 H   0  0  0  0  0  0  0  0  0  0  0  0
    8.1065    2.6384    0.6566 H   0  0  0  0  0  0  0  0  0  0  0  0
    7.2072    3.4656    1.9561 H   0  0  0  0  0  0  0  0  0  0  0  0
    7.2939    0.5721    1.8069 H   0  0  0  0  0  0  0  0  0  0  0  0
    5.8646    1.4189    2.4395 H   0  0  0  0  0  0  0  0  0  0  0  0
  1  2  1  0  0  0  0
  1 12  1  0  0  0  0
  1 13  1  0  0  0  0
  2  3  1  0  0  0  0
  2  7  2  0  0  0  0
  3  4  2  0  0  0  0
  3 14  1  0  0  0  0
  4  5  1  0  0  0  0
  4  8  1  0  0  0  0
  5  7  1  0  0  0  0
  5  6  1  0  0  0  0
  8 11  1  0  0  0  0
  8  9  1  0  0  0  0
  8 15  1  0  0  0  0
  9 10  1  0  0  0  0
  9 16  1  0  0  0  0
  9 17  1  0  0  0  0
 10 11  1  0  0  0  0
 10 18  1  0  0  0  0
 10 19  1  0  0  0  0
 11 20  1  0  0  0  0
 11 21  1  0  0  0  0
M  END
$$$$