36250661 36250660
 OpenBabel01161410453D

 31 32  0  0  0  0  0  0  0  0999 V2000
    9.3683   -5.0626   -4.1383 C   0  0  0  0  0  0  0  0  0  0  0  0
    8.3931   -4.9423   -3.0185 C   0  0  0  0  0  0  0  0  0  0  0  0
    8.4562   -6.0311   -1.7091 S   0  0  0  0  0  0  0  0  0  0  0  0
    7.1399   -5.2746   -0.9164 C   0  0  0  0  0  0  0  0  0  0  0  0
    6.6175   -4.2196   -1.6536 C   0  0  0  0  0  0  0  0  0  0  0  0
    7.3699   -4.0327   -2.8662 C   0  0  0  0  0  0  0  0  0  0  0  0
    5.4640   -3.3418   -1.2529 C   0  0  0  0  0  0  0  0  0  0  0  0
    4.2234   -3.9443   -1.8693 C   0  0  0  0  0  0  0  0  0  0  0  0
    3.4415   -4.8622   -1.1530 C   0  0  0  0  0  0  0  0  0  0  0  0
    2.2907   -5.4163   -1.7202 C   0  0  0  0  0  0  0  0  0  0  0  0
    1.8941   -5.0625   -3.0173 C   0  0  0  0  0  0  0  0  0  0  0  0
    2.6731   -4.1421   -3.7336 C   0  0  0  0  0  0  0  0  0  0  0  0
    3.8240   -3.5898   -3.1664 C   0  0  0  0  0  0  0  0  0  0  0  0
    0.6547   -5.6500   -3.6445 C   0  0  0  0  0  0  0  0  0  0  0  0
   -0.2640   -4.6985   -3.9719 F   0  0  0  0  0  0  0  0  0  0  0  0
    0.9209   -6.3229   -4.7984 F   0  0  0  0  0  0  0  0  0  0  0  0
    0.0009   -6.5351   -2.8402 F   0  0  0  0  0  0  0  0  0  0  0  0
    6.6981   -5.8105    0.4060 C   0  0  0  0  0  0  0  0  0  0  0  0
    9.3678   -4.1570   -4.7528 H   0  0  0  0  0  0  0  0  0  0  0  0
    9.1088   -5.9088   -4.7815 H   0  0  0  0  0  0  0  0  0  0  0  0
   10.3868   -5.2077   -3.7639 H   0  0  0  0  0  0  0  0  0  0  0  0
    7.1594   -3.2596   -3.5961 H   0  0  0  0  0  0  0  0  0  0  0  0
    5.6109   -2.3173   -1.6165 H   0  0  0  0  0  0  0  0  0  0  0  0
    5.3630   -3.2723   -0.1643 H   0  0  0  0  0  0  0  0  0  0  0  0
    3.7244   -5.1534   -0.1437 H   0  0  0  0  0  0  0  0  0  0  0  0
    1.7050   -6.1289   -1.1416 H   0  0  0  0  0  0  0  0  0  0  0  0
    2.3844   -3.8524   -4.7435 H   0  0  0  0  0  0  0  0  0  0  0  0
    4.4105   -2.8799   -3.7450 H   0  0  0  0  0  0  0  0  0  0  0  0
    6.3277   -5.0084    1.0522 H   0  0  0  0  0  0  0  0  0  0  0  0
    7.5171   -6.3022    0.9426 H   0  0  0  0  0  0  0  0  0  0  0  0
    5.8943   -6.5409    0.2678 H   0  0  0  0  0  0  0  0  0  0  0  0
  1  2  1  0  0  0  0
  1 19  1  0  0  0  0
  1 20  1  0  0  0  0
  1 21  1  0  0  0  0
  2  6  2  0  0  0  0
  2  3  1  0  0  0  0
  3  4  1  0  0  0  0
  4  5  2  0  0  0  0
  4 18  1  0  0  0  0
  5  6  1  0  0  0  0
  5  7  1  0  0  0  0
  6 22  1  0  0  0  0
  7  8  1  0  0  0  0
  7 23  1  0  0  0  0
  7 24  1  0  0  0  0
  8  9  2  0  0  0  0
  8 13  1  0  0  0  0
  9 10  1  0  0  0  0
  9 25  1  0  0  0  0
 10 11  2  0  0  0  0
 10 26  1  0  0  0  0
 11 12  1  0  0  0  0
 11 14  1  0  0  0  0
 12 13  2  0  0  0  0
 12 27  1  0  0  0  0
 13 28  1  0  0  0  0
 14 17  1  0  0  0  0
 14 16  1  0  0  0  0
 14 15  1  0  0  0  0
 18 29  1  0  0  0  0
 18 30  1  0  0  0  0
 18 31  1  0  0  0  0
M  END
$$$$