6822429 6822428
 OpenBabel01161410093D

 38 37  0  0  1  0  0  0  0  0999 V2000
    5.0711   -2.7754   -3.4318 C   0  0  0  0  0  0  0  0  0  0  0  0
    5.7193   -2.4935   -2.0865 C   0  0  0  0  0  0  0  0  0  0  0  0
    4.4274   -2.0893   -0.8609 S   0  0  0  0  0  0  0  0  0  0  0  0
    5.4163   -1.9755    0.6974 C   0  0  0  0  0  0  0  0  0  0  0  0
    5.8887   -3.3793    1.1633 C   0  0  3  0  0  0  0  0  0  0  0  0
    6.7578   -3.3869    2.4439 C   0  0  3  0  0  0  0  0  0  0  0  0
    6.1744   -2.6706    3.6876 C   0  0  3  0  0  0  0  0  0  0  0  0
    4.8556   -3.2562    4.2408 C   0  0  3  0  0  0  0  0  0  0  0  0
    5.0286   -4.6471    4.5391 O   0  0  0  0  0  0  0  0  0  0  0  0
    4.4048   -2.5361    5.5092 C   0  0  0  0  0  0  0  0  0  0  0  0
    7.1748   -2.7473    4.7218 O   0  0  0  0  0  0  0  0  0  0  0  0
    7.0760   -4.7531    2.7862 O   0  0  0  0  0  0  0  0  0  0  0  0
    4.7367   -4.2238    1.3791 O   0  0  0  0  0  0  0  0  0  0  0  0
    6.7435   -0.7277    0.5637 S   0  0  0  0  0  0  0  0  0  0  0  0
    5.7423    0.7887    0.6944 C   0  0  0  0  0  0  0  0  0  0  0  0
    6.6524    1.9929    0.8564 C   0  0  0  0  0  0  0  0  0  0  0  0
    5.8423   -3.0074   -4.1741 H   0  0  0  0  0  0  0  0  0  0  0  0
    4.5105   -1.9086   -3.7989 H   0  0  0  0  0  0  0  0  0  0  0  0
    4.3932   -3.6341   -3.3799 H   0  0  0  0  0  0  0  0  0  0  0  0
    6.4065   -1.6504   -2.1954 H   0  0  0  0  0  0  0  0  0  0  0  0
    6.2829   -3.3735   -1.7686 H   0  0  0  0  0  0  0  0  0  0  0  0
    4.6989   -1.6162    1.4430 H   0  0  0  0  0  0  0  0  0  0  0  0
    6.4737   -3.8758    0.3804 H   0  0  0  0  0  0  0  0  0  0  0  0
    7.7282   -2.9300    2.2183 H   0  0  0  0  0  0  0  0  0  0  0  0
    6.0323   -1.6065    3.4747 H   0  0  0  0  0  0  0  0  0  0  0  0
    4.0619   -3.1676    3.4936 H   0  0  0  0  0  0  0  0  0  0  0  0
    4.1961   -4.9619    4.9346 H   0  0  0  0  0  0  0  0  0  0  0  0
    5.1163   -2.6820    6.3291 H   0  0  0  0  0  0  0  0  0  0  0  0
    3.4465   -2.9387    5.8551 H   0  0  0  0  0  0  0  0  0  0  0  0
    4.2836   -1.4625    5.3325 H   0  0  0  0  0  0  0  0  0  0  0  0
    7.3812   -3.7028    4.7911 H   0  0  0  0  0  0  0  0  0  0  0  0
    6.2362   -5.1347    3.1269 H   0  0  0  0  0  0  0  0  0  0  0  0
    4.2598   -4.2608    0.5272 H   0  0  0  0  0  0  0  0  0  0  0  0
    5.0792    0.7166    1.5620 H   0  0  0  0  0  0  0  0  0  0  0  0
    5.1332    0.9047   -0.2065 H   0  0  0  0  0  0  0  0  0  0  0  0
    7.2559    1.9196    1.7680 H   0  0  0  0  0  0  0  0  0  0  0  0
    6.0516    2.9054    0.9314 H   0  0  0  0  0  0  0  0  0  0  0  0
    7.3254    2.1083    0.0002 H   0  0  0  0  0  0  0  0  0  0  0  0
  1  2  1  0  0  0  0
  1 17  1  0  0  0  0
  1 18  1  0  0  0  0
  1 19  1  0  0  0  0
  2  3  1  0  0  0  0
  2 20  1  0  0  0  0
  2 21  1  0  0  0  0
  3  4  1  0  0  0  0
  4 14  1  0  0  0  0
  4  5  1  0  0  0  0
  4 22  1  0  0  0  0
  5 13  1  0  0  0  0
  5  6  1  0  0  0  0
  5 23  1  0  0  0  0
  6 12  1  0  0  0  0
  6  7  1  0  0  0  0
  6 24  1  0  0  0  0
  7 11  1  0  0  0  0
  7  8  1  0  0  0  0
  7 25  1  0  0  0  0
  8 10  1  0  0  0  0
  8  9  1  0  0  0  0
  8 26  1  0  0  0  0
  9 27  1  0  0  0  0
 10 28  1  0  0  0  0
 10 29  1  0  0  0  0
 10 30  1  0  0  0  0
 11 31  1  0  0  0  0
 12 32  1  0  0  0  0
 13 33  1  0  0  0  0
 14 15  1  0  0  0  0
 15 16  1  0  0  0  0
 15 34  1  0  0  0  0
 15 35  1  0  0  0  0
 16 36  1  0  0  0  0
 16 37  1  0  0  0  0
 16 38  1  0  0  0  0
M  END
$$$$