27252 27251
 OpenBabel01161410183D

 14 14  0  0  0  0  0  0  0  0999 V2000
    0.8365    0.0483   -0.2934 C   0  0  0  0  0  0  0  0  0  0  0  0
    2.3155    0.0631   -0.0216 C   0  0  0  0  0  0  0  0  0  0  0  0
    2.6954    0.0467    1.4337 C   0  0  0  0  0  0  0  0  0  0  0  0
    3.1947   -0.6646   -0.9437 N   0  0  0  0  0  0  0  0  0  0  0  0
    3.2203    0.7934   -0.9890 C   0  0  0  0  0  0  0  0  0  0  0  0
    0.6117    0.0647   -1.3656 H   0  0  0  0  0  0  0  0  0  0  0  0
    0.3592    0.9234    0.1604 H   0  0  0  0  0  0  0  0  0  0  0  0
    0.3786   -0.8510    0.1321 H   0  0  0  0  0  0  0  0  0  0  0  0
    3.7817    0.0427    1.5779 H   0  0  0  0  0  0  0  0  0  0  0  0
    2.2889   -0.8438    1.9250 H   0  0  0  0  0  0  0  0  0  0  0  0
    2.2940    0.9310    1.9402 H   0  0  0  0  0  0  0  0  0  0  0  0
    2.6700   -1.0475   -1.7324 H   0  0  0  0  0  0  0  0  0  0  0  0
    4.1220    1.2614   -0.6118 H   0  0  0  0  0  0  0  0  0  0  0  0
    2.7957    1.2590   -1.8699 H   0  0  0  0  0  0  0  0  0  0  0  0
  1  2  1  0  0  0  0
  1  6  1  0  0  0  0
  1  7  1  0  0  0  0
  1  8  1  0  0  0  0
  2  5  1  0  0  0  0
  2  4  1  0  0  0  0
  2  3  1  0  0  0  0
  3  9  1  0  0  0  0
  3 10  1  0  0  0  0
  3 11  1  0  0  0  0
  4  5  1  0  0  0  0
  4 12  1  0  0  0  0
  5 13  1  0  0  0  0
  5 14  1  0  0  0  0
M  END
$$$$