28165970 28165969
 OpenBabel01161410543D

 27 28  0  0  0  0  0  0  0  0999 V2000
    2.0040   -1.4276   -0.3616 O   0  0  0  0  0  0  0  0  0  0  0  0
    3.2182   -0.9107   -0.0153 C   0  0  0  0  0  0  0  0  0  0  0  0
    3.4751    0.4111   -0.3483 C   0  0  0  0  0  0  0  0  0  0  0  0
    4.7082    0.9441   -0.0031 C   0  0  0  0  0  0  0  0  0  0  0  0
    5.0637    2.6397   -0.4275 S   0  0  0  0  0  0  0  0  0  0  0  0
    6.7694    2.7763    0.1998 C   0  0  0  0  0  0  0  0  0  0  0  0
    7.3467    4.1452   -0.0700 C   0  0  0  0  0  0  0  0  0  0  0  0
    7.1920    5.1818    0.8623 C   0  0  0  0  0  0  0  0  0  0  0  0
    7.7265    6.4464    0.6109 C   0  0  0  0  0  0  0  0  0  0  0  0
    8.4153    6.6901   -0.5762 C   0  0  0  0  0  0  0  0  0  0  0  0
    8.5660    5.6716   -1.5151 C   0  0  0  0  0  0  0  0  0  0  0  0
    8.0324    4.4063   -1.2658 C   0  0  0  0  0  0  0  0  0  0  0  0
    5.6549    0.2287    0.6413 N   0  0  0  0  0  0  0  0  0  0  0  0
    5.3662   -1.0464    0.9461 C   0  0  0  0  0  0  0  0  0  0  0  0
    4.1704   -1.6702    0.6448 C   0  0  0  0  0  0  0  0  0  0  0  0
    6.3657   -1.7110    1.5939 O   0  0  0  0  0  0  0  0  0  0  0  0
    1.9510   -2.3565   -0.0822 H   0  0  0  0  0  0  0  0  0  0  0  0
    2.7280    1.0030   -0.8656 H   0  0  0  0  0  0  0  0  0  0  0  0
    7.4030    2.0188   -0.2763 H   0  0  0  0  0  0  0  0  0  0  0  0
    6.7841    2.5829    1.2788 H   0  0  0  0  0  0  0  0  0  0  0  0
    6.6516    5.0071    1.7904 H   0  0  0  0  0  0  0  0  0  0  0  0
    7.6033    7.2421    1.3409 H   0  0  0  0  0  0  0  0  0  0  0  0
    8.8305    7.6753   -0.7711 H   0  0  0  0  0  0  0  0  0  0  0  0
    9.0975    5.8626   -2.4436 H   0  0  0  0  0  0  0  0  0  0  0  0
    8.1524    3.6220   -2.0100 H   0  0  0  0  0  0  0  0  0  0  0  0
    3.9882   -2.7015    0.9124 H   0  0  0  0  0  0  0  0  0  0  0  0
    6.0721   -2.6159    1.7699 H   0  0  0  0  0  0  0  0  0  0  0  0
  1  2  1  0  0  0  0
  1 17  1  0  0  0  0
  2 15  1  0  0  0  0
  2  3  2  0  0  0  0
  3  4  1  0  0  0  0
  3 18  1  0  0  0  0
  4 13  2  0  0  0  0
  4  5  1  0  0  0  0
  5  6  1  0  0  0  0
  6  7  1  0  0  0  0
  6 19  1  0  0  0  0
  6 20  1  0  0  0  0
  7  8  2  0  0  0  0
  7 12  1  0  0  0  0
  8  9  1  0  0  0  0
  8 21  1  0  0  0  0
  9 10  2  0  0  0  0
  9 22  1  0  0  0  0
 10 11  1  0  0  0  0
 10 23  1  0  0  0  0
 11 12  2  0  0  0  0
 11 24  1  0  0  0  0
 12 25  1  0  0  0  0
 13 14  1  0  0  0  0
 14 15  2  0  0  0  0
 14 16  1  0  0  0  0
 15 26  1  0  0  0  0
 16 27  1  0  0  0  0
M  END
$$$$