32407426 32407425
 OpenBabel01161410553D

 31 33  0  0  0  0  0  0  0  0999 V2000
    2.7847    2.9921    0.3801 C   0  0  0  0  0  0  0  0  0  0  0  0
    4.1007    2.6332    0.7801 O   0  0  0  0  0  0  0  0  0  0  0  0
    4.2416    1.2141    0.8954 C   0  0  0  0  0  0  0  0  0  0  0  0
    5.6135    0.8143    1.3075 C   0  0  0  0  0  0  0  0  0  0  0  0
    6.7150    1.5895    1.6107 C   0  0  0  0  0  0  0  0  0  0  0  0
    6.9792    3.0413    1.6570 C   0  0  0  0  0  0  0  0  0  0  0  0
    7.7695    0.7854    1.9154 O   0  0  0  0  0  0  0  0  0  0  0  0
    7.3851   -0.5394    1.8268 N   0  0  0  0  0  0  0  0  0  0  0  0
    6.0951   -0.5112    1.4730 C   0  0  0  0  0  0  0  0  0  0  0  0
    5.3203   -1.7628    1.2903 C   0  0  0  0  0  0  0  0  0  0  0  0
    5.8503   -3.0129    1.4144 N   0  0  0  0  0  0  0  0  0  0  0  0
    6.8055   -3.2672    1.6383 H   0  0  0  0  0  0  0  0  0  0  0  0
    4.9259   -3.9621    1.1888 N   0  0  0  0  0  0  0  0  0  0  0  0
    3.8389   -3.2203    0.9492 C   0  0  0  0  0  0  0  0  0  0  0  0
    4.0418   -1.8629    0.9943 N   0  0  0  0  0  0  0  0  0  0  0  0
    2.4870   -3.8498    0.6596 C   0  0  0  0  0  0  0  0  0  0  0  0
    1.2464   -3.1815    1.2189 C   0  0  0  0  0  0  0  0  0  0  0  0
    1.5184   -3.1134   -0.2443 C   0  0  0  0  0  0  0  0  0  0  0  0
    2.7272    4.0825    0.3264 H   0  0  0  0  0  0  0  0  0  0  0  0
    2.0505    2.6396    1.1110 H   0  0  0  0  0  0  0  0  0  0  0  0
    2.5599    2.5816   -0.6089 H   0  0  0  0  0  0  0  0  0  0  0  0
    4.0119    0.7613   -0.0769 H   0  0  0  0  0  0  0  0  0  0  0  0
    3.5203    0.8476    1.6357 H   0  0  0  0  0  0  0  0  0  0  0  0
    6.1444    3.5811    2.1130 H   0  0  0  0  0  0  0  0  0  0  0  0
    7.1374    3.4307    0.6467 H   0  0  0  0  0  0  0  0  0  0  0  0
    7.8738    3.2595    2.2494 H   0  0  0  0  0  0  0  0  0  0  0  0
    2.4891   -4.9332    0.6239 H   0  0  0  0  0  0  0  0  0  0  0  0
    1.3678   -2.2774    1.8052 H   0  0  0  0  0  0  0  0  0  0  0  0
    0.4453   -3.8253    1.5630 H   0  0  0  0  0  0  0  0  0  0  0  0
    0.9014   -3.7076   -0.9078 H   0  0  0  0  0  0  0  0  0  0  0  0
    1.8219   -2.1593   -0.6606 H   0  0  0  0  0  0  0  0  0  0  0  0
  1  2  1  0  0  0  0
  1 19  1  0  0  0  0
  1 20  1  0  0  0  0
  1 21  1  0  0  0  0
  2  3  1  0  0  0  0
  3  4  1  0  0  0  0
  3 22  1  0  0  0  0
  3 23  1  0  0  0  0
  4  9  1  0  0  0  0
  4  5  2  0  0  0  0
  5  7  1  0  0  0  0
  5  6  1  0  0  0  0
  6 24  1  0  0  0  0
  6 25  1  0  0  0  0
  6 26  1  0  0  0  0
  7  8  1  0  0  0  0
  8  9  2  0  0  0  0
  9 10  1  0  0  0  0
 10 11  1  0  0  0  0
 10 15  2  0  0  0  0
 11 13  1  0  0  0  0
 11 12  1  0  0  0  0
 13 14  2  0  0  0  0
 14 15  1  0  0  0  0
 14 16  1  0  0  0  0
 16 18  1  0  0  0  0
 16 17  1  0  0  0  0
 16 27  1  0  0  0  0
 17 18  1  0  0  0  0
 17 28  1  0  0  0  0
 17 29  1  0  0  0  0
 18 30  1  0  0  0  0
 18 31  1  0  0  0  0
M  END
$$$$