43165334 43165333
 OpenBabel01161410563D

 43 45  0  0  1  0  0  0  0  0999 V2000
    5.7301    2.4978   -2.3109 C   0  0  0  0  0  0  0  0  0  0  0  0
    5.2813    3.7331   -1.7703 O   0  0  0  0  0  0  0  0  0  0  0  0
    3.9847    3.7916   -1.3286 C   0  0  0  0  0  0  0  0  0  0  0  0
    3.4551    5.0887   -1.3567 C   0  0  0  0  0  0  0  0  0  0  0  0
    2.1494    5.3390   -0.9362 C   0  0  0  0  0  0  0  0  0  0  0  0
    1.3679    4.2939   -0.4585 C   0  0  0  0  0  0  0  0  0  0  0  0
    1.8905    2.9999   -0.4007 C   0  0  0  0  0  0  0  0  0  0  0  0
    3.1937    2.7373   -0.8462 C   0  0  0  0  0  0  0  0  0  0  0  0
    3.7386    1.4781   -0.7660 O   0  0  0  0  0  0  0  0  0  0  0  0
    2.8672    0.3298   -0.8830 C   0  0  3  0  0  0  0  0  0  0  0  0
    1.9929    0.1873   -2.1491 C   0  0  0  0  0  0  0  0  0  0  0  0
    2.4572   -1.2061   -2.3327 N   0  0  0  0  0  0  0  0  0  0  0  0
    3.5617   -0.9583   -1.3806 C   0  0  0  0  0  0  0  0  0  0  0  0
    1.5012   -2.1755   -1.7601 C   0  0  0  0  0  0  0  0  0  0  0  0
    0.3258   -2.5464   -2.6573 C   0  0  0  0  0  0  0  0  0  0  0  0
    0.1648   -2.0044   -3.9444 C   0  0  0  0  0  0  0  0  0  0  0  0
   -0.9266   -2.3546   -4.7405 C   0  0  0  0  0  0  0  0  0  0  0  0
   -1.8704   -3.2567   -4.2645 C   0  0  0  0  0  0  0  0  0  0  0  0
   -1.7240   -3.8179   -2.9953 C   0  0  0  0  0  0  0  0  0  0  0  0
   -0.6276   -3.4799   -2.1924 C   0  0  0  0  0  0  0  0  0  0  0  0
   -0.3979   -3.9871   -0.9390 O   0  0  0  0  0  0  0  0  0  0  0  0
   -1.1794   -5.0993   -0.5381 C   0  0  0  0  0  0  0  0  0  0  0  0
   -0.6408   -5.5744    0.6144 F   0  0  0  0  0  0  0  0  0  0  0  0
   -2.4298   -4.6737   -0.2331 F   0  0  0  0  0  0  0  0  0  0  0  0
    6.6233    2.7054   -2.9085 H   0  0  0  0  0  0  0  0  0  0  0  0
    4.9885    2.0466   -2.9789 H   0  0  0  0  0  0  0  0  0  0  0  0
    6.0286    1.8111   -1.5135 H   0  0  0  0  0  0  0  0  0  0  0  0
    4.0694    5.9097   -1.7188 H   0  0  0  0  0  0  0  0  0  0  0  0
    1.7515    6.3497   -0.9746 H   0  0  0  0  0  0  0  0  0  0  0  0
    0.3538    4.4864   -0.1157 H   0  0  0  0  0  0  0  0  0  0  0  0
    1.2671    2.2152    0.0144 H   0  0  0  0  0  0  0  0  0  0  0  0
    2.3190    0.1530    0.0526 H   0  0  0  0  0  0  0  0  0  0  0  0
    2.2929    0.8428   -2.9758 H   0  0  0  0  0  0  0  0  0  0  0  0
    0.9186    0.3295   -1.9867 H   0  0  0  0  0  0  0  0  0  0  0  0
    3.7311   -1.7228   -0.6142 H   0  0  0  0  0  0  0  0  0  0  0  0
    4.5199   -0.7761   -1.8831 H   0  0  0  0  0  0  0  0  0  0  0  0
    1.1076   -1.8271   -0.7954 H   0  0  0  0  0  0  0  0  0  0  0  0
    2.0519   -3.1076   -1.5750 H   0  0  0  0  0  0  0  0  0  0  0  0
    0.8906   -1.3005   -4.3456 H   0  0  0  0  0  0  0  0  0  0  0  0
   -1.0375   -1.9174   -5.7291 H   0  0  0  0  0  0  0  0  0  0  0  0
   -2.7253   -3.5217   -4.8819 H   0  0  0  0  0  0  0  0  0  0  0  0
   -2.4984   -4.5025   -2.6619 H   0  0  0  0  0  0  0  0  0  0  0  0
   -1.2077   -5.9113   -1.2733 H   0  0  0  0  0  0  0  0  0  0  0  0
  1  2  1  0  0  0  0
  1 25  1  0  0  0  0
  1 26  1  0  0  0  0
  1 27  1  0  0  0  0
  2  3  1  0  0  0  0
  3  4  2  0  0  0  0
  3  8  1  0  0  0  0
  4  5  1  0  0  0  0
  4 28  1  0  0  0  0
  5  6  2  0  0  0  0
  5 29  1  0  0  0  0
  6  7  1  0  0  0  0
  6 30  1  0  0  0  0
  7  8  2  0  0  0  0
  7 31  1  0  0  0  0
  8  9  1  0  0  0  0
  9 10  1  0  0  0  0
 10 13  1  0  0  0  0
 10 11  1  0  0  0  0
 10 32  1  0  0  0  0
 11 12  1  0  0  0  0
 11 33  1  0  0  0  0
 11 34  1  0  0  0  0
 12 13  1  0  0  0  0
 12 14  1  0  0  0  0
 13 35  1  0  0  0  0
 13 36  1  0  0  0  0
 14 15  1  0  0  0  0
 14 37  1  0  0  0  0
 14 38  1  0  0  0  0
 15 16  2  0  0  0  0
 15 20  1  0  0  0  0
 16 17  1  0  0  0  0
 16 39  1  0  0  0  0
 17 18  2  0  0  0  0
 17 40  1  0  0  0  0
 18 19  1  0  0  0  0
 18 41  1  0  0  0  0
 19 20  2  0  0  0  0
 19 42  1  0  0  0  0
 20 21  1  0  0  0  0
 21 22  1  0  0  0  0
 22 24  1  0  0  0  0
 22 23  1  0  0  0  0
 22 43  1  0  0  0  0
M  END
$$$$