44690872 44690871
 OpenBabel01161410083D

 66 71  0  0  0  0  0  0  0  0999 V2000
   -5.4235   -4.2109  -10.2331 C   0  0  0  0  0  0  0  0  0  0  0  0
   -4.4828   -4.0768   -9.0406 C   0  0  0  0  0  0  0  0  0  0  0  0
   -3.4097   -5.0146   -9.2167 O   0  0  0  0  0  0  0  0  0  0  0  0
   -2.9078   -5.7039   -8.1349 C   0  0  0  0  0  0  0  0  0  0  0  0
   -3.7534   -5.9541   -7.0455 C   0  0  0  0  0  0  0  0  0  0  0  0
   -3.2528   -6.4237   -5.8514 C   0  0  0  0  0  0  0  0  0  0  0  0
   -1.9256   -6.7929   -5.7618 C   0  0  0  0  0  0  0  0  0  0  0  0
   -1.0971   -6.8087   -6.9253 C   0  0  0  0  0  0  0  0  0  0  0  0
   -1.5443   -6.1849   -8.1595 C   0  0  0  0  0  0  0  0  0  0  0  0
   -0.6279   -5.9261   -9.4159 C   0  0  0  0  0  0  0  0  0  0  0  0
    0.6633   -5.3012   -9.3215 C   0  0  0  0  0  0  0  0  0  0  0  0
    0.8989   -4.1325  -10.0674 C   0  0  0  0  0  0  0  0  0  0  0  0
    0.1039   -3.8524  -11.1759 C   0  0  0  0  0  0  0  0  0  0  0  0
   -0.8847   -4.7598  -11.5669 C   0  0  0  0  0  0  0  0  0  0  0  0
   -1.2476   -5.8235  -10.7060 C   0  0  0  0  0  0  0  0  0  0  0  0
   -2.2443   -6.7200  -11.1572 C   0  0  0  0  0  0  0  0  0  0  0  0
   -2.8682   -6.5586  -12.3976 C   0  0  0  0  0  0  0  0  0  0  0  0
   -2.5121   -5.4974  -13.2205 C   0  0  0  0  0  0  0  0  0  0  0  0
   -1.5281   -4.6016  -12.8076 C   0  0  0  0  0  0  0  0  0  0  0  0
    2.2050   -6.4238   -9.2186 P   0  0  3  0  0  0  0  0  0  0  0  0
    2.9020   -6.1294   -7.5649 C   0  0  0  0  0  0  0  0  0  0  0  0
    3.7384   -7.1271   -7.0208 C   0  0  0  0  0  0  0  0  0  0  0  0
    4.2724   -7.0068   -5.7372 C   0  0  0  0  0  0  0  0  0  0  0  0
    3.9568   -5.8950   -4.9646 C   0  0  0  0  0  0  0  0  0  0  0  0
    3.1263   -4.9022   -5.4824 C   0  0  0  0  0  0  0  0  0  0  0  0
    2.6093   -5.0128   -6.7774 C   0  0  0  0  0  0  0  0  0  0  0  0
    3.5372   -5.8381  -10.3419 C   0  0  0  0  0  0  0  0  0  0  0  0
    4.8926   -5.8752   -9.9531 C   0  0  0  0  0  0  0  0  0  0  0  0
    5.9334   -5.5235  -10.8233 C   0  0  0  0  0  0  0  0  0  0  0  0
    5.6452   -5.1174  -12.1158 C   0  0  0  0  0  0  0  0  0  0  0  0
    4.3215   -5.0974  -12.5435 C   0  0  0  0  0  0  0  0  0  0  0  0
    3.2855   -5.4809  -11.6746 C   0  0  0  0  0  0  0  0  0  0  0  0
    0.1089   -7.5029   -6.7291 C   0  0  0  0  0  0  0  0  0  0  0  0
    0.5798   -7.9011   -5.4668 C   0  0  0  0  0  0  0  0  0  0  0  0
   -0.1859   -7.6914   -4.3372 C   0  0  0  0  0  0  0  0  0  0  0  0
   -1.4634   -7.1874   -4.4961 C   0  0  0  0  0  0  0  0  0  0  0  0
   -3.9066   -2.6724   -8.9373 C   0  0  0  0  0  0  0  0  0  0  0  0
   -5.7980   -5.2383  -10.3074 H   0  0  0  0  0  0  0  0  0  0  0  0
   -4.9098   -3.9881  -11.1731 H   0  0  0  0  0  0  0  0  0  0  0  0
   -6.2828   -3.5394  -10.1335 H   0  0  0  0  0  0  0  0  0  0  0  0
   -5.0910   -4.2434   -8.1508 H   0  0  0  0  0  0  0  0  0  0  0  0
   -4.8211   -5.7748   -7.0811 H   0  0  0  0  0  0  0  0  0  0  0  0
   -3.9268   -6.5211   -5.0035 H   0  0  0  0  0  0  0  0  0  0  0  0
    1.8156   -3.5608   -9.9310 H   0  0  0  0  0  0  0  0  0  0  0  0
    0.3686   -3.0055  -11.8081 H   0  0  0  0  0  0  0  0  0  0  0  0
   -2.5510   -7.5508  -10.5251 H   0  0  0  0  0  0  0  0  0  0  0  0
   -3.6399   -7.2562  -12.7105 H   0  0  0  0  0  0  0  0  0  0  0  0
   -2.9989   -5.3647  -14.1827 H   0  0  0  0  0  0  0  0  0  0  0  0
   -1.2585   -3.7802  -13.4684 H   0  0  0  0  0  0  0  0  0  0  0  0
    3.9776   -8.0191   -7.5994 H   0  0  0  0  0  0  0  0  0  0  0  0
    4.9154   -7.7876   -5.3410 H   0  0  0  0  0  0  0  0  0  0  0  0
    4.3479   -5.8058   -3.9551 H   0  0  0  0  0  0  0  0  0  0  0  0
    2.8646   -4.0421   -4.8724 H   0  0  0  0  0  0  0  0  0  0  0  0
    1.9546   -4.2268   -7.1422 H   0  0  0  0  0  0  0  0  0  0  0  0
    5.1904   -6.2069   -8.9652 H   0  0  0  0  0  0  0  0  0  0  0  0
    6.9647   -5.5820  -10.4840 H   0  0  0  0  0  0  0  0  0  0  0  0
    6.4484   -4.8377  -12.7931 H   0  0  0  0  0  0  0  0  0  0  0  0
    4.0907   -4.7997  -13.5628 H   0  0  0  0  0  0  0  0  0  0  0  0
    2.2748   -5.5076  -12.0745 H   0  0  0  0  0  0  0  0  0  0  0  0
    0.7044   -7.7839   -7.5825 H   0  0  0  0  0  0  0  0  0  0  0  0
    1.5558   -8.3682   -5.3775 H   0  0  0  0  0  0  0  0  0  0  0  0
    0.1830   -7.9652   -3.3541 H   0  0  0  0  0  0  0  0  0  0  0  0
   -2.1014   -7.1006   -3.6186 H   0  0  0  0  0  0  0  0  0  0  0  0
   -3.2309   -2.6024   -8.0781 H   0  0  0  0  0  0  0  0  0  0  0  0
   -4.7031   -1.9323   -8.8084 H   0  0  0  0  0  0  0  0  0  0  0  0
   -3.3240   -2.4167   -9.8274 H   0  0  0  0  0  0  0  0  0  0  0  0
  1  2  1  0  0  0  0
  1 38  1  0  0  0  0
  1 39  1  0  0  0  0
  1 40  1  0  0  0  0
  2 37  1  0  0  0  0
  2  3  1  0  0  0  0
  2 41  1  0  0  0  0
  3  4  1  0  0  0  0
  4  5  2  0  0  0  0
  4  9  1  0  0  0  0
  5  6  1  0  0  0  0
  5 42  1  0  0  0  0
  6  7  2  0  0  0  0
  6 43  1  0  0  0  0
  7 36  1  0  0  0  0
  7  8  1  0  0  0  0
  8 33  1  0  0  0  0
  8  9  2  0  0  0  0
  9 10  1  0  0  0  0
 10 11  2  0  0  0  0
 10 15  1  0  0  0  0
 11 12  1  0  0  0  0
 11 20  1  0  0  0  0
 12 13  2  0  0  0  0
 12 44  1  0  0  0  0
 13 14  1  0  0  0  0
 13 45  1  0  0  0  0
 14 19  1  0  0  0  0
 14 15  2  0  0  0  0
 15 16  1  0  0  0  0
 16 17  2  0  0  0  0
 16 46  1  0  0  0  0
 17 18  1  0  0  0  0
 17 47  1  0  0  0  0
 18 19  2  0  0  0  0
 18 48  1  0  0  0  0
 19 49  1  0  0  0  0
 20 27  1  0  0  0  0
 20 21  1  0  0  0  0
 21 22  2  0  0  0  0
 21 26  1  0  0  0  0
 22 23  1  0  0  0  0
 22 50  1  0  0  0  0
 23 24  2  0  0  0  0
 23 51  1  0  0  0  0
 24 25  1  0  0  0  0
 24 52  1  0  0  0  0
 25 26  2  0  0  0  0
 25 53  1  0  0  0  0
 26 54  1  0  0  0  0
 27 28  2  0  0  0  0
 27 32  1  0  0  0  0
 28 29  1  0  0  0  0
 28 55  1  0  0  0  0
 29 30  2  0  0  0  0
 29 56  1  0  0  0  0
 30 31  1  0  0  0  0
 30 57  1  0  0  0  0
 31 32  2  0  0  0  0
 31 58  1  0  0  0  0
 32 59  1  0  0  0  0
 33 34  2  0  0  0  0
 33 60  1  0  0  0  0
 34 35  1  0  0  0  0
 34 61  1  0  0  0  0
 35 36  2  0  0  0  0
 35 62  1  0  0  0  0
 36 63  1  0  0  0  0
 37 64  1  0  0  0  0
 37 65  1  0  0  0  0
 37 66  1  0  0  0  0
M  END
$$$$