23003578 23003577
 OpenBabel01161410083D

 23 23  0  0  0  0  0  0  0  0999 V2000
    3.4993   -0.2385    0.9237 C   0  0  0  0  0  0  0  0  0  0  0  0
    2.4017   -0.1655   -0.1266 C   0  0  0  0  0  0  0  0  0  0  0  0
    2.8667   -0.6825   -1.4593 C   0  0  0  0  0  0  0  0  0  0  0  0
    3.2856    0.2604   -2.3442 N   0  0  0  0  0  0  0  0  0  0  0  0
    3.7192   -0.1801   -3.5532 C   0  0  0  0  0  0  0  0  0  0  0  0
    4.1746    0.8685   -4.5221 C   0  0  0  0  0  0  0  0  0  0  0  0
    3.7378   -1.5408   -3.8704 C   0  0  0  0  0  0  0  0  0  0  0  0
    3.3264   -2.4819   -2.9842 N   0  0  0  0  0  0  0  0  0  0  0  0
    2.8992   -2.0377   -1.7874 C   0  0  0  0  0  0  0  0  0  0  0  0
    2.5125   -3.0374   -0.9464 O   0  0  0  0  0  0  0  0  0  0  0  0
    4.2118   -2.0420   -5.2002 C   0  0  0  0  0  0  0  0  0  0  0  0
    3.1392    0.1645    1.8755 H   0  0  0  0  0  0  0  0  0  0  0  0
    4.3764    0.3427    0.6190 H   0  0  0  0  0  0  0  0  0  0  0  0
    3.8248   -1.2699    1.0947 H   0  0  0  0  0  0  0  0  0  0  0  0
    2.0864    0.8795   -0.2381 H   0  0  0  0  0  0  0  0  0  0  0  0
    1.5127   -0.7128    0.2058 H   0  0  0  0  0  0  0  0  0  0  0  0
    3.5661    0.8398   -5.4310 H   0  0  0  0  0  0  0  0  0  0  0  0
    5.2265    0.7176   -4.7825 H   0  0  0  0  0  0  0  0  0  0  0  0
    4.0775    1.8682   -4.0856 H   0  0  0  0  0  0  0  0  0  0  0  0
    2.2915   -2.6635   -0.0840 H   0  0  0  0  0  0  0  0  0  0  0  0
    4.1504   -3.1344   -5.2486 H   0  0  0  0  0  0  0  0  0  0  0  0
    5.2556   -1.7581   -5.3664 H   0  0  0  0  0  0  0  0  0  0  0  0
    3.5915   -1.6361   -6.0053 H   0  0  0  0  0  0  0  0  0  0  0  0
  1  2  1  0  0  0  0
  1 12  1  0  0  0  0
  1 13  1  0  0  0  0
  1 14  1  0  0  0  0
  2  3  1  0  0  0  0
  2 15  1  0  0  0  0
  2 16  1  0  0  0  0
  3  9  1  0  0  0  0
  3  4  2  0  0  0  0
  4  5  1  0  0  0  0
  5  7  2  0  0  0  0
  5  6  1  0  0  0  0
  6 17  1  0  0  0  0
  6 18  1  0  0  0  0
  6 19  1  0  0  0  0
  7  8  1  0  0  0  0
  7 11  1  0  0  0  0
  8  9  2  0  0  0  0
  9 10  1  0  0  0  0
 10 20  1  0  0  0  0
 11 21  1  0  0  0  0
 11 22  1  0  0  0  0
 11 23  1  0  0  0  0
M  END
$$$$