44454350 44454349
 OpenBabel01161410533D

 35 36  0  0  1  0  0  0  0  0999 V2000
    1.8263    2.4335   -0.6961 C   0  0  0  0  0  0  0  0  0  0  0  0
    2.6565    1.8059   -1.6702 O   0  0  0  0  0  0  0  0  0  0  0  0
    3.0936    0.5263   -1.1311 N   0  0  0  0  0  0  0  0  0  0  0  0
    4.5426    0.4263   -1.3754 C   0  0  3  0  0  0  0  0  0  0  0  0
    4.9712    0.6178   -2.8478 C   0  0  0  0  0  0  0  0  0  0  0  0
    4.3052   -0.3014   -3.8753 C   0  0  0  0  0  0  0  0  0  0  0  0
    4.5717   -1.7780   -3.6205 C   0  0  0  0  0  0  0  0  0  0  0  0
    3.9049   -2.2261   -2.4385 O   0  0  0  0  0  0  0  0  0  0  0  0
    4.7279   -2.1198   -1.3487 C   0  0  0  0  0  0  0  0  0  0  0  0
    5.0698   -0.8771   -0.8050 C   0  0  0  0  0  0  0  0  0  0  0  0
    5.8891   -0.8648    0.3366 C   0  0  0  0  0  0  0  0  0  0  0  0
    6.3541   -2.0531    0.9311 C   0  0  0  0  0  0  0  0  0  0  0  0
    7.2235   -1.9644    2.1555 C   0  0  0  0  0  0  0  0  0  0  0  0
    5.9896   -3.2916    0.3693 C   0  0  0  0  0  0  0  0  0  0  0  0
    5.1562   -3.3075   -0.7578 C   0  0  0  0  0  0  0  0  0  0  0  0
    6.3932   -4.6074    0.9761 C   0  0  0  0  0  0  0  0  0  0  0  0
    2.3437    2.5149    0.2650 H   0  0  0  0  0  0  0  0  0  0  0  0
    0.8944    1.8704   -0.5793 H   0  0  0  0  0  0  0  0  0  0  0  0
    1.5846    3.4396   -1.0485 H   0  0  0  0  0  0  0  0  0  0  0  0
    2.6158   -0.1508   -1.7298 H   0  0  0  0  0  0  0  0  0  0  0  0
    5.0128    1.2447   -0.8130 H   0  0  0  0  0  0  0  0  0  0  0  0
    4.7683    1.6544   -3.1465 H   0  0  0  0  0  0  0  0  0  0  0  0
    6.0603    0.4951   -2.9224 H   0  0  0  0  0  0  0  0  0  0  0  0
    4.6866   -0.0415   -4.8699 H   0  0  0  0  0  0  0  0  0  0  0  0
    3.2252   -0.1162   -3.8900 H   0  0  0  0  0  0  0  0  0  0  0  0
    5.6479   -1.9998   -3.6000 H   0  0  0  0  0  0  0  0  0  0  0  0
    4.1522   -2.3579   -4.4504 H   0  0  0  0  0  0  0  0  0  0  0  0
    6.1553    0.0919    0.7846 H   0  0  0  0  0  0  0  0  0  0  0  0
    7.3498   -0.9280    2.4859 H   0  0  0  0  0  0  0  0  0  0  0  0
    8.2190   -2.3655    1.9421 H   0  0  0  0  0  0  0  0  0  0  0  0
    6.7728   -2.5194    2.9842 H   0  0  0  0  0  0  0  0  0  0  0  0
    4.8342   -4.2543   -1.1876 H   0  0  0  0  0  0  0  0  0  0  0  0
    7.3347   -4.5358    1.5286 H   0  0  0  0  0  0  0  0  0  0  0  0
    6.5466   -5.3602    0.1944 H   0  0  0  0  0  0  0  0  0  0  0  0
    5.6105   -4.9594    1.6555 H   0  0  0  0  0  0  0  0  0  0  0  0
  1  2  1  0  0  0  0
  1 17  1  0  0  0  0
  1 18  1  0  0  0  0
  1 19  1  0  0  0  0
  2  3  1  0  0  0  0
  3  4  1  0  0  0  0
  3 20  1  0  0  0  0
  4  5  1  0  0  0  0
  4 10  1  0  0  0  0
  4 21  1  0  0  0  0
  5  6  1  0  0  0  0
  5 22  1  0  0  0  0
  5 23  1  0  0  0  0
  6  7  1  0  0  0  0
  6 24  1  0  0  0  0
  6 25  1  0  0  0  0
  7  8  1  0  0  0  0
  7 26  1  0  0  0  0
  7 27  1  0  0  0  0
  8  9  1  0  0  0  0
  9 10  2  0  0  0  0
  9 15  1  0  0  0  0
 10 11  1  0  0  0  0
 11 12  2  0  0  0  0
 11 28  1  0  0  0  0
 12 14  1  0  0  0  0
 12 13  1  0  0  0  0
 13 29  1  0  0  0  0
 13 30  1  0  0  0  0
 13 31  1  0  0  0  0
 14 15  2  0  0  0  0
 14 16  1  0  0  0  0
 15 32  1  0  0  0  0
 16 33  1  0  0  0  0
 16 34  1  0  0  0  0
 16 35  1  0  0  0  0
M  END
$$$$