10169212 10169211
 OpenBabel01161410543D

 16 15  0  0  1  0  0  0  0  0999 V2000
    2.8453   -0.3065    1.3755 O   0  0  0  0  0  0  0  0  0  0  0  0
    2.2204   -0.0074    0.1339 C   0  0  0  0  0  0  0  0  0  0  0  0
    3.0522   -0.4519   -1.1137 C   0  0  0  0  0  0  0  0  0  0  0  0
    2.2580   -0.2994   -2.4387 C   0  0  3  0  0  0  0  0  0  0  0  0
    1.7073    1.4005   -2.7039 Cl  0  0  0  0  0  0  0  0  0  0  0  0
    3.0012   -0.7437   -3.7014 C   0  0  0  0  0  0  0  0  0  0  0  0
    4.6060    0.4785   -1.1496 Cl  0  0  0  0  0  0  0  0  0  0  0  0
    3.5274   -2.1978   -0.8802 Cl  0  0  0  0  0  0  0  0  0  0  0  0
    0.9488   -0.6358    0.1760 O   0  0  0  0  0  0  0  0  0  0  0  0
    3.2799   -1.1723    1.2651 H   0  0  0  0  0  0  0  0  0  0  0  0
    2.0524    1.0747    0.1113 H   0  0  0  0  0  0  0  0  0  0  0  0
    1.3349   -0.8892   -2.3753 H   0  0  0  0  0  0  0  0  0  0  0  0
    3.9091   -0.1594   -3.8741 H   0  0  0  0  0  0  0  0  0  0  0  0
    2.3623   -0.6272   -4.5846 H   0  0  0  0  0  0  0  0  0  0  0  0
    3.2811   -1.8006   -3.6537 H   0  0  0  0  0  0  0  0  0  0  0  0
    0.4915   -0.2146    0.9260 H   0  0  0  0  0  0  0  0  0  0  0  0
  1  2  1  0  0  0  0
  1 10  1  0  0  0  0
  2  9  1  0  0  0  0
  2  3  1  0  0  0  0
  2 11  1  0  0  0  0
  3  8  1  0  0  0  0
  3  7  1  0  0  0  0
  3  4  1  0  0  0  0
  4  6  1  0  0  0  0
  4  5  1  0  0  0  0
  4 12  1  0  0  0  0
  6 13  1  0  0  0  0
  6 14  1  0  0  0  0
  6 15  1  0  0  0  0
  9 16  1  0  0  0  0
M  END
$$$$