5863191 5863190
 OpenBabel01161410183D

 21 21  0  0  0  0  0  0  0  0999 V2000
    0.9695    0.3762    0.1304 C   0  0  0  0  0  0  0  0  0  0  0  0
    2.4602    0.0799    0.0712 C   0  0  0  0  0  0  0  0  0  0  0  0
    2.8491   -0.6277   -1.1849 C   0  0  0  0  0  0  0  0  0  0  0  0
    3.3462    0.0715   -2.2120 N   0  0  0  0  0  0  0  0  0  0  0  0
    3.5798   -0.8502   -3.1546 N   0  0  0  0  0  0  0  0  0  0  0  0
    3.9662   -0.5410   -4.0392 H   0  0  0  0  0  0  0  0  0  0  0  0
    3.2491   -2.1201   -2.7756 C   0  0  0  0  0  0  0  0  0  0  0  0
    2.7670   -2.0177   -1.4836 C   0  0  0  0  0  0  0  0  0  0  0  0
    2.2685   -3.1168   -0.6215 C   0  0  0  0  0  0  0  0  0  0  0  0
    3.4246   -3.2849   -3.6727 C   0  0  0  0  0  0  0  0  0  0  0  0
    0.7232    0.8995    1.0597 H   0  0  0  0  0  0  0  0  0  0  0  0
    0.3793   -0.5455    0.0929 H   0  0  0  0  0  0  0  0  0  0  0  0
    0.6589    1.0078   -0.7088 H   0  0  0  0  0  0  0  0  0  0  0  0
    2.7475   -0.5248    0.9391 H   0  0  0  0  0  0  0  0  0  0  0  0
    3.0164    1.0218    0.1555 H   0  0  0  0  0  0  0  0  0  0  0  0
    2.1243   -2.7896    0.4122 H   0  0  0  0  0  0  0  0  0  0  0  0
    2.9787   -3.9500   -0.6111 H   0  0  0  0  0  0  0  0  0  0  0  0
    1.3089   -3.4864   -0.9969 H   0  0  0  0  0  0  0  0  0  0  0  0
    3.7814   -2.9835   -4.6630 H   0  0  0  0  0  0  0  0  0  0  0  0
    2.4744   -3.8129   -3.8031 H   0  0  0  0  0  0  0  0  0  0  0  0
    4.1519   -3.9851   -3.2494 H   0  0  0  0  0  0  0  0  0  0  0  0
  1  2  1  0  0  0  0
  1 11  1  0  0  0  0
  1 12  1  0  0  0  0
  1 13  1  0  0  0  0
  2  3  1  0  0  0  0
  2 14  1  0  0  0  0
  2 15  1  0  0  0  0
  3  4  2  0  0  0  0
  3  8  1  0  0  0  0
  4  5  1  0  0  0  0
  5  7  1  0  0  0  0
  5  6  1  0  0  0  0
  7  8  2  0  0  0  0
  7 10  1  0  0  0  0
  8  9  1  0  0  0  0
  9 16  1  0  0  0  0
  9 17  1  0  0  0  0
  9 18  1  0  0  0  0
 10 19  1  0  0  0  0
 10 20  1  0  0  0  0
 10 21  1  0  0  0  0
M  END
$$$$