43538892 4349937
 OpenBabel01161410173D

 23 23  0  0  0  0  0  0  0  0999 V2000
    1.0485   -0.1695   -0.0965 C   0  0  0  0  0  0  0  0  0  0  0  0
    2.5648   -0.1124   -0.0026 C   0  0  0  0  0  0  0  0  0  0  0  0
    3.0211    0.6347    1.2504 C   0  0  0  0  0  0  0  0  0  0  0  0
    4.5473    0.6937    1.3352 C   0  0  0  0  0  0  0  0  0  0  0  0
    5.0029    1.4190    2.5751 C   0  0  0  0  0  0  0  0  0  0  0  0
    5.2083    0.7250    3.7653 C   0  0  0  0  0  0  0  0  0  0  0  0
    5.6115    1.4322    4.8945 C   0  0  0  0  0  0  0  0  0  0  0  0
    5.7932    2.8066    4.8079 C   0  0  0  0  0  0  0  0  0  0  0  0
    5.5610    3.4199    3.5889 C   0  0  0  0  0  0  0  0  0  0  0  0
    5.1696    2.7601    2.4769 N   0  0  0  0  0  0  0  0  0  0  0  0
    0.7448   -0.7127   -0.9969 H   0  0  0  0  0  0  0  0  0  0  0  0
    0.6203    0.8368   -0.1463 H   0  0  0  0  0  0  0  0  0  0  0  0
    0.6204   -0.6829    0.7705 H   0  0  0  0  0  0  0  0  0  0  0  0
    2.9621    0.3817   -0.8967 H   0  0  0  0  0  0  0  0  0  0  0  0
    2.9627   -1.1337    0.0081 H   0  0  0  0  0  0  0  0  0  0  0  0
    2.6160    0.1378    2.1412 H   0  0  0  0  0  0  0  0  0  0  0  0
    2.6099    1.6523    1.2431 H   0  0  0  0  0  0  0  0  0  0  0  0
    4.9495    1.2106    0.4549 H   0  0  0  0  0  0  0  0  0  0  0  0
    4.9725   -0.3173    1.3221 H   0  0  0  0  0  0  0  0  0  0  0  0
    5.0575   -0.3482    3.8169 H   0  0  0  0  0  0  0  0  0  0  0  0
    5.7809    0.9141    5.8339 H   0  0  0  0  0  0  0  0  0  0  0  0
    6.1061    3.3865    5.6684 H   0  0  0  0  0  0  0  0  0  0  0  0
    5.6864    4.4921    3.4691 H   0  0  0  0  0  0  0  0  0  0  0  0
  1  2  1  0  0  0  0
  1 11  1  0  0  0  0
  1 12  1  0  0  0  0
  1 13  1  0  0  0  0
  2  3  1  0  0  0  0
  2 14  1  0  0  0  0
  2 15  1  0  0  0  0
  3  4  1  0  0  0  0
  3 16  1  0  0  0  0
  3 17  1  0  0  0  0
  4  5  1  0  0  0  0
  4 18  1  0  0  0  0
  4 19  1  0  0  0  0
  5  6  2  0  0  0  0
  5 10  1  0  0  0  0
  6  7  1  0  0  0  0
  6 20  1  0  0  0  0
  7  8  2  0  0  0  0
  7 21  1  0  0  0  0
  8  9  1  0  0  0  0
  8 22  1  0  0  0  0
  9 10  2  0  0  0  0
  9 23  1  0  0  0  0
M  END
$$$$