43031597 43031596
 OpenBabel01161409553D

 41 42  0  0  1  0  0  0  0  0999 V2000
    4.4067    0.2541   -1.8795 N   0  0  0  0  0  0  0  0  0  0  0  0
    4.2147   -0.8515   -0.9498 C   0  0  1  0  0  0  0  0  0  0  0  0
    4.1370   -1.8359   -1.4245 H   0  0  0  0  0  0  0  0  0  0  0  0
    5.2738   -0.7785    0.1689 C   0  0  0  0  0  0  0  0  0  0  0  0
    4.1437   -1.1616    1.1685 C   0  0  2  0  0  0  0  0  0  0  0  0
    4.0212   -2.2557    1.2287 H   0  0  0  0  0  0  0  0  0  0  0  0
    3.1240   -0.5327    0.1316 C   0  0  0  0  0  0  0  0  0  0  0  0
    2.7313    0.9263    0.3958 C   0  0  0  0  0  0  0  0  0  0  0  0
    1.8658   -1.3877   -0.0521 C   0  0  0  0  0  0  0  0  0  0  0  0
    4.2336   -0.5744    2.5735 C   0  0  0  0  0  0  0  0  0  0  0  0
    5.2434   -1.2862    3.4043 C   0  0  0  0  0  0  0  0  0  0  0  0
    4.8786   -2.3243    4.1657 N   0  0  0  0  0  0  0  0  0  0  0  0
    6.0254   -2.7363    4.8146 O   0  0  0  0  0  0  0  0  0  0  0  0
    7.0754   -1.9475    4.4448 C   0  0  0  0  0  0  0  0  0  0  0  0
    6.6233   -1.0131    3.5413 C   0  0  0  0  0  0  0  0  0  0  0  0
    8.4006   -2.2612    5.0838 C   0  0  0  0  0  0  0  0  0  0  0  0
    9.5001   -1.3159    4.5659 C   0  0  0  0  0  0  0  0  0  0  0  0
    8.2908   -2.0933    6.6102 C   0  0  0  0  0  0  0  0  0  0  0  0
    8.8076   -3.7094    4.7580 C   0  0  0  0  0  0  0  0  0  0  0  0
    4.6043    1.1600   -1.4590 H   0  0  0  0  0  0  0  0  0  0  0  0
    3.6205    0.3984   -2.5121 H   0  0  0  0  0  0  0  0  0  0  0  0
    5.7125    0.2104    0.3524 H   0  0  0  0  0  0  0  0  0  0  0  0
    6.0881   -1.5050    0.0879 H   0  0  0  0  0  0  0  0  0  0  0  0
    3.6038    1.5678    0.5556 H   0  0  0  0  0  0  0  0  0  0  0  0
    2.0988    1.0036    1.2873 H   0  0  0  0  0  0  0  0  0  0  0  0
    2.1633    1.3371   -0.4462 H   0  0  0  0  0  0  0  0  0  0  0  0
    2.1113   -2.4423   -0.2188 H   0  0  0  0  0  0  0  0  0  0  0  0
    1.2846   -1.0430   -0.9142 H   0  0  0  0  0  0  0  0  0  0  0  0
    1.2248   -1.3341    0.8345 H   0  0  0  0  0  0  0  0  0  0  0  0
    4.4883    0.4915    2.5378 H   0  0  0  0  0  0  0  0  0  0  0  0
    3.2523   -0.6429    3.0594 H   0  0  0  0  0  0  0  0  0  0  0  0
    7.1985   -0.2392    3.0556 H   0  0  0  0  0  0  0  0  0  0  0  0
    9.6269   -1.4047    3.4804 H   0  0  0  0  0  0  0  0  0  0  0  0
   10.4670   -1.5416    5.0305 H   0  0  0  0  0  0  0  0  0  0  0  0
    9.2653   -0.2678    4.7869 H   0  0  0  0  0  0  0  0  0  0  0  0
    7.5461   -2.7746    7.0385 H   0  0  0  0  0  0  0  0  0  0  0  0
    7.9913   -1.0727    6.8771 H   0  0  0  0  0  0  0  0  0  0  0  0
    9.2481   -2.3004    7.1021 H   0  0  0  0  0  0  0  0  0  0  0  0
    8.0751   -4.4304    5.1397 H   0  0  0  0  0  0  0  0  0  0  0  0
    9.7773   -3.9583    5.2041 H   0  0  0  0  0  0  0  0  0  0  0  0
    8.8868   -3.8658    3.6757 H   0  0  0  0  0  0  0  0  0  0  0  0
  1  2  1  0  0  0  0
  1 20  1  0  0  0  0
  1 21  1  0  0  0  0
  2  7  1  0  0  0  0
  2  4  1  0  0  0  0
  2  3  1  6  0  0  0
  4  5  1  0  0  0  0
  4 22  1  0  0  0  0
  4 23  1  0  0  0  0
  5  7  1  0  0  0  0
  5  6  1  1  0  0  0
  5 10  1  0  0  0  0
  7  9  1  0  0  0  0
  7  8  1  0  0  0  0
  8 24  1  0  0  0  0
  8 25  1  0  0  0  0
  8 26  1  0  0  0  0
  9 27  1  0  0  0  0
  9 28  1  0  0  0  0
  9 29  1  0  0  0  0
 10 11  1  0  0  0  0
 10 30  1  0  0  0  0
 10 31  1  0  0  0  0
 11 15  1  0  0  0  0
 11 12  2  0  0  0  0
 12 13  1  0  0  0  0
 13 14  1  0  0  0  0
 14 15  2  0  0  0  0
 14 16  1  0  0  0  0
 15 32  1  0  0  0  0
 16 19  1  0  0  0  0
 16 18  1  0  0  0  0
 16 17  1  0  0  0  0
 17 33  1  0  0  0  0
 17 34  1  0  0  0  0
 17 35  1  0  0  0  0
 18 36  1  0  0  0  0
 18 37  1  0  0  0  0
 18 38  1  0  0  0  0
 19 39  1  0  0  0  0
 19 40  1  0  0  0  0
 19 41  1  0  0  0  0
M  END
$$$$