982054 982053
 OpenBabel01161410483D

 23 24  0  0  0  0  0  0  0  0999 V2000
    3.5658   -2.7195   -2.4613 C   0  0  0  0  0  0  0  0  0  0  0  0
    3.5007   -2.4275   -1.0710 O   0  0  0  0  0  0  0  0  0  0  0  0
    3.9272   -1.0933   -0.7698 C   0  0  0  0  0  0  0  0  0  0  0  0
    5.3938   -0.8858   -0.9688 C   0  0  0  0  0  0  0  0  0  0  0  0
    6.4108   -1.5795   -0.3393 C   0  0  0  0  0  0  0  0  0  0  0  0
    7.6071   -1.1145   -0.8103 N   0  0  0  0  0  0  0  0  0  0  0  0
    8.5158   -1.4549   -0.5279 H   0  0  0  0  0  0  0  0  0  0  0  0
    7.4000   -0.1202   -1.7370 C   0  0  0  0  0  0  0  0  0  0  0  0
    6.0200    0.0513   -1.8547 C   0  0  0  0  0  0  0  0  0  0  0  0
    5.5408    1.0250   -2.7569 C   0  0  0  0  0  0  0  0  0  0  0  0
    6.4504    1.7840   -3.5010 C   0  0  0  0  0  0  0  0  0  0  0  0
    7.8217    1.5867   -3.3607 C   0  0  0  0  0  0  0  0  0  0  0  0
    8.3232    0.6298   -2.4748 C   0  0  0  0  0  0  0  0  0  0  0  0
    3.1209   -3.7050   -2.6239 H   0  0  0  0  0  0  0  0  0  0  0  0
    4.6039   -2.7558   -2.8046 H   0  0  0  0  0  0  0  0  0  0  0  0
    3.0011   -1.9833   -3.0417 H   0  0  0  0  0  0  0  0  0  0  0  0
    3.6897   -0.9155    0.2853 H   0  0  0  0  0  0  0  0  0  0  0  0
    3.3290   -0.3813   -1.3490 H   0  0  0  0  0  0  0  0  0  0  0  0
    6.3728   -2.3763    0.3917 H   0  0  0  0  0  0  0  0  0  0  0  0
    4.4740    1.1896   -2.8791 H   0  0  0  0  0  0  0  0  0  0  0  0
    6.0808    2.5346   -4.1960 H   0  0  0  0  0  0  0  0  0  0  0  0
    8.5132    2.1856   -3.9493 H   0  0  0  0  0  0  0  0  0  0  0  0
    9.3920    0.4773   -2.3688 H   0  0  0  0  0  0  0  0  0  0  0  0
  1  2  1  0  0  0  0
  1 14  1  0  0  0  0
  1 15  1  0  0  0  0
  1 16  1  0  0  0  0
  2  3  1  0  0  0  0
  3  4  1  0  0  0  0
  3 17  1  0  0  0  0
  3 18  1  0  0  0  0
  4  9  1  0  0  0  0
  4  5  2  0  0  0  0
  5  6  1  0  0  0  0
  5 19  1  0  0  0  0
  6  8  1  0  0  0  0
  6  7  1  0  0  0  0
  8  9  2  0  0  0  0
  8 13  1  0  0  0  0
  9 10  1  0  0  0  0
 10 11  2  0  0  0  0
 10 20  1  0  0  0  0
 11 12  1  0  0  0  0
 11 21  1  0  0  0  0
 12 13  2  0  0  0  0
 12 22  1  0  0  0  0
 13 23  1  0  0  0  0
M  END
$$$$