3718494 3718493
 OpenBabel01161410583D

 21 21  0  0  0  0  0  0  0  0999 V2000
    0.9893    0.0112    0.2718 C   0  0  0  0  0  0  0  0  0  0  0  0
    2.5109   -0.0052    0.1046 C   0  0  0  0  0  0  0  0  0  0  0  0
    3.0211   -1.3872   -0.3220 C   0  0  0  0  0  0  0  0  0  0  0  0
    2.7213   -1.6984   -1.7923 C   0  0  0  0  0  0  0  0  0  0  0  0
    3.1725   -0.6652   -2.7358 N   0  0  0  0  0  0  0  0  0  0  0  0
    2.6845    0.6669   -2.3502 C   0  0  0  0  0  0  0  0  0  0  0  0
    2.9839    1.0544   -0.8981 C   0  0  0  0  0  0  0  0  0  0  0  0
    4.6220   -0.6148   -2.6178 O   0  0  0  0  0  0  0  0  0  0  0  0
    0.6510    0.9956    0.6125 H   0  0  0  0  0  0  0  0  0  0  0  0
    0.6776   -0.7240    1.0215 H   0  0  0  0  0  0  0  0  0  0  0  0
    0.4636   -0.2185   -0.6596 H   0  0  0  0  0  0  0  0  0  0  0  0
    2.9431    0.2328    1.0850 H   0  0  0  0  0  0  0  0  0  0  0  0
    2.5842   -2.1665    0.3140 H   0  0  0  0  0  0  0  0  0  0  0  0
    4.1058   -1.4299   -0.1585 H   0  0  0  0  0  0  0  0  0  0  0  0
    3.1840   -2.6562   -2.0604 H   0  0  0  0  0  0  0  0  0  0  0  0
    1.6427   -1.8455   -1.9255 H   0  0  0  0  0  0  0  0  0  0  0  0
    3.1202    1.4171   -3.0217 H   0  0  0  0  0  0  0  0  0  0  0  0
    1.6028    0.7069   -2.5271 H   0  0  0  0  0  0  0  0  0  0  0  0
    4.0658    1.1967   -0.7789 H   0  0  0  0  0  0  0  0  0  0  0  0
    2.5208    2.0229   -0.6745 H   0  0  0  0  0  0  0  0  0  0  0  0
    4.8924   -0.8246   -3.5317 H   0  0  0  0  0  0  0  0  0  0  0  0
  1  2  1  0  0  0  0
  1  9  1  0  0  0  0
  1 10  1  0  0  0  0
  1 11  1  0  0  0  0
  2  7  1  0  0  0  0
  2  3  1  0  0  0  0
  2 12  1  0  0  0  0
  3  4  1  0  0  0  0
  3 13  1  0  0  0  0
  3 14  1  0  0  0  0
  4  5  1  0  0  0  0
  4 15  1  0  0  0  0
  4 16  1  0  0  0  0
  5  6  1  0  0  0  0
  5  8  1  0  0  0  0
  6  7  1  0  0  0  0
  6 17  1  0  0  0  0
  6 18  1  0  0  0  0
  7 19  1  0  0  0  0
  7 20  1  0  0  0  0
  8 21  1  0  0  0  0
M  END
$$$$