48553756 48553755
 OpenBabel01161410403D

 19 19  0  0  0  0  0  0  0  0999 V2000
    5.3522    1.9151    0.5070 F   0  0  0  0  0  0  0  0  0  0  0  0
    4.4535    1.0014    0.0650 C   0  0  0  0  0  0  0  0  0  0  0  0
    3.1876    1.6804   -0.5720 C   0  0  0  0  0  0  0  0  0  0  0  0
    2.5532    2.6571    0.4004 C   0  0  0  0  0  0  0  0  0  0  0  0
    1.6749    2.2312    1.4079 C   0  0  0  0  0  0  0  0  0  0  0  0
    1.1357    3.1540    2.3010 C   0  0  0  0  0  0  0  0  0  0  0  0
    1.5003    4.4820    2.1700 C   0  0  0  0  0  0  0  0  0  0  0  0
    2.3514    4.9321    1.2250 N   0  0  0  0  0  0  0  0  0  0  0  0
    2.8587    4.0155    0.3677 C   0  0  0  0  0  0  0  0  0  0  0  0
    3.5130    2.3655   -1.7870 O   0  0  0  0  0  0  0  0  0  0  0  0
    2.2102    0.7185   -0.9823 O   0  0  0  0  0  0  0  0  0  0  0  0
    5.0970    0.2462   -0.8662 F   0  0  0  0  0  0  0  0  0  0  0  0
    4.1466    0.1908    1.1035 F   0  0  0  0  0  0  0  0  0  0  0  0
    1.4106    1.1798    1.5093 H   0  0  0  0  0  0  0  0  0  0  0  0
    0.4528    2.8440    3.0841 H   0  0  0  0  0  0  0  0  0  0  0  0
    1.1103    5.2409    2.8421 H   0  0  0  0  0  0  0  0  0  0  0  0
    3.5431    4.4278   -0.3703 H   0  0  0  0  0  0  0  0  0  0  0  0
    4.0935    1.7548   -2.2777 H   0  0  0  0  0  0  0  0  0  0  0  0
    1.3810    1.2156   -1.0904 H   0  0  0  0  0  0  0  0  0  0  0  0
  1  2  1  0  0  0  0
  2 13  1  0  0  0  0
  2 12  1  0  0  0  0
  2  3  1  0  0  0  0
  3 11  1  0  0  0  0
  3 10  1  0  0  0  0
  3  4  1  0  0  0  0
  4  5  2  0  0  0  0
  4  9  1  0  0  0  0
  5  6  1  0  0  0  0
  5 14  1  0  0  0  0
  6  7  2  0  0  0  0
  6 15  1  0  0  0  0
  7  8  1  0  0  0  0
  7 16  1  0  0  0  0
  8  9  2  0  0  0  0
  9 17  1  0  0  0  0
 10 18  1  0  0  0  0
 11 19  1  0  0  0  0
M  END
$$$$