44153392 44153391
 OpenBabel01161410493D

 20 21  0  0  0  0  0  0  0  0999 V2000
    4.3189   -1.3197    2.3456 O   0  0  0  0  0  0  0  0  0  0  0  0
    4.1844   -0.8731    1.0837 C   0  0  0  0  0  0  0  0  0  0  0  0
    4.8380    0.2463    0.7978 N   0  0  0  0  0  0  0  0  0  0  0  0
    4.3540    0.5876   -0.7680 S   0  0  0  0  0  0  0  0  0  0  0  0
    3.3230   -0.6993   -1.0618 N   0  0  0  0  0  0  0  0  0  0  0  0
    3.3613   -1.4566    0.0412 C   0  0  0  0  0  0  0  0  0  0  0  0
    2.6753   -2.6353    0.2073 N   0  0  0  0  0  0  0  0  0  0  0  0
    3.3909   -3.8378    0.6640 C   0  0  0  0  0  0  0  0  0  0  0  0
    2.8141   -4.9842   -0.1645 C   0  0  0  0  0  0  0  0  0  0  0  0
    1.4233   -4.4912   -0.5177 C   0  0  0  0  0  0  0  0  0  0  0  0
    1.6734   -3.0148   -0.7980 C   0  0  0  0  0  0  0  0  0  0  0  0
    3.6059   -1.9601    2.5004 H   0  0  0  0  0  0  0  0  0  0  0  0
    3.1799   -4.0006    1.7266 H   0  0  0  0  0  0  0  0  0  0  0  0
    4.4764   -3.7733    0.5263 H   0  0  0  0  0  0  0  0  0  0  0  0
    3.4065   -5.1214   -1.0773 H   0  0  0  0  0  0  0  0  0  0  0  0
    2.8053   -5.9316    0.3816 H   0  0  0  0  0  0  0  0  0  0  0  0
    0.9907   -5.0144   -1.3747 H   0  0  0  0  0  0  0  0  0  0  0  0
    0.7501   -4.6093    0.3397 H   0  0  0  0  0  0  0  0  0  0  0  0
    2.0633   -2.8980   -1.8170 H   0  0  0  0  0  0  0  0  0  0  0  0
    0.7569   -2.4259   -0.6942 H   0  0  0  0  0  0  0  0  0  0  0  0
  1  2  1  0  0  0  0
  1 12  1  0  0  0  0
  2  6  1  0  0  0  0
  2  3  2  0  0  0  0
  3  4  1  0  0  0  0
  4  5  1  0  0  0  0
  5  6  2  0  0  0  0
  6  7  1  0  0  0  0
  7 11  1  0  0  0  0
  7  8  1  0  0  0  0
  8  9  1  0  0  0  0
  8 13  1  0  0  0  0
  8 14  1  0  0  0  0
  9 10  1  0  0  0  0
  9 15  1  0  0  0  0
  9 16  1  0  0  0  0
 10 11  1  0  0  0  0
 10 17  1  0  0  0  0
 10 18  1  0  0  0  0
 11 19  1  0  0  0  0
 11 20  1  0  0  0  0
M  END
$$$$