29269455 29269454
 OpenBabel01161410473D

 17 17  0  0  0  0  0  0  0  0999 V2000
    4.1822    0.1285   -1.2587 Cl  0  0  0  0  0  0  0  0  0  0  0  0
    2.8285    0.0735   -0.1132 C   0  0  0  0  0  0  0  0  0  0  0  0
    3.3334   -0.0927    1.2899 C   0  0  0  0  0  0  0  0  0  0  0  0
    3.6240    1.0191    2.0833 C   0  0  0  0  0  0  0  0  0  0  0  0
    4.0992    0.8109    3.3671 C   0  0  0  0  0  0  0  0  0  0  0  0
    4.3033   -0.4101    3.9049 N   0  0  0  0  0  0  0  0  0  0  0  0
    4.0355   -1.4843    3.1274 C   0  0  0  0  0  0  0  0  0  0  0  0
    3.5561   -1.3666    1.8250 C   0  0  0  0  0  0  0  0  0  0  0  0
    4.2850   -2.8398    3.7180 C   0  0  0  0  0  0  0  0  0  0  0  0
    2.1721   -0.7563   -0.3947 H   0  0  0  0  0  0  0  0  0  0  0  0
    2.2523    0.9986   -0.2165 H   0  0  0  0  0  0  0  0  0  0  0  0
    3.4917    2.0303    1.7129 H   0  0  0  0  0  0  0  0  0  0  0  0
    4.3380    1.6472    4.0179 H   0  0  0  0  0  0  0  0  0  0  0  0
    3.3650   -2.2581    1.2343 H   0  0  0  0  0  0  0  0  0  0  0  0
    3.3651   -3.4326    3.7077 H   0  0  0  0  0  0  0  0  0  0  0  0
    4.6242   -2.7567    4.7554 H   0  0  0  0  0  0  0  0  0  0  0  0
    5.0577   -3.3636    3.1471 H   0  0  0  0  0  0  0  0  0  0  0  0
  1  2  1  0  0  0  0
  2  3  1  0  0  0  0
  2 10  1  0  0  0  0
  2 11  1  0  0  0  0
  3  4  2  0  0  0  0
  3  8  1  0  0  0  0
  4  5  1  0  0  0  0
  4 12  1  0  0  0  0
  5  6  2  0  0  0  0
  5 13  1  0  0  0  0
  6  7  1  0  0  0  0
  7  8  2  0  0  0  0
  7  9  1  0  0  0  0
  8 14  1  0  0  0  0
  9 15  1  0  0  0  0
  9 16  1  0  0  0  0
  9 17  1  0  0  0  0
M  END
$$$$