492499 492498
 OpenBabel01161410143D

 42 45  0  0  0  0  0  0  0  0999 V2000
   -1.5027   -0.1474    0.6059 C   0  0  0  0  0  0  0  0  0  0  0  0
   -0.8510    1.0652    0.8055 C   0  0  0  0  0  0  0  0  0  0  0  0
    0.5190    1.1768    0.5444 C   0  0  0  0  0  0  0  0  0  0  0  0
    1.2674    0.0836    0.0704 C   0  0  0  0  0  0  0  0  0  0  0  0
    0.5817   -1.1293   -0.1264 C   0  0  0  0  0  0  0  0  0  0  0  0
   -0.7864   -1.2460    0.1419 C   0  0  0  0  0  0  0  0  0  0  0  0
    2.7164    0.2044   -0.2096 C   0  0  0  0  0  0  0  0  0  0  0  0
    3.2537    1.3522   -0.8140 C   0  0  0  0  0  0  0  0  0  0  0  0
    4.6271    1.4674   -1.0768 C   0  0  0  0  0  0  0  0  0  0  0  0
    5.5219    0.4379   -0.7524 C   0  0  0  0  0  0  0  0  0  0  0  0
    4.9875   -0.7110   -0.1506 C   0  0  0  0  0  0  0  0  0  0  0  0
    3.6148   -0.8235    0.1168 C   0  0  0  0  0  0  0  0  0  0  0  0
    6.9669    0.5571   -1.0322 C   0  0  0  0  0  0  0  0  0  0  0  0
    7.6841   -0.4903   -1.6284 C   0  0  0  0  0  0  0  0  0  0  0  0
    9.0564   -0.3771   -1.8941 C   0  0  0  0  0  0  0  0  0  0  0  0
    9.7703    0.7881   -1.5739 C   0  0  0  0  0  0  0  0  0  0  0  0
    9.0513    1.8352   -0.9770 C   0  0  0  0  0  0  0  0  0  0  0  0
    7.6785    1.7232   -0.7132 C   0  0  0  0  0  0  0  0  0  0  0  0
   11.2181    0.9067   -1.8529 C   0  0  0  0  0  0  0  0  0  0  0  0
   12.1014   -0.1584   -1.5997 C   0  0  0  0  0  0  0  0  0  0  0  0
   13.4701   -0.0485   -1.8660 C   0  0  0  0  0  0  0  0  0  0  0  0
   13.9865    1.1339   -2.3872 C   0  0  0  0  0  0  0  0  0  0  0  0
   13.1351    2.2042   -2.6438 C   0  0  0  0  0  0  0  0  0  0  0  0
   11.7660    2.0894   -2.3820 C   0  0  0  0  0  0  0  0  0  0  0  0
   -2.5662   -0.2363    0.8116 H   0  0  0  0  0  0  0  0  0  0  0  0
   -1.4048    1.9268    1.1687 H   0  0  0  0  0  0  0  0  0  0  0  0
    1.0020    2.1340    0.7295 H   0  0  0  0  0  0  0  0  0  0  0  0
    1.1081   -2.0022   -0.5067 H   0  0  0  0  0  0  0  0  0  0  0  0
   -1.2900   -2.1959   -0.0169 H   0  0  0  0  0  0  0  0  0  0  0  0
    2.6036    2.1743   -1.1063 H   0  0  0  0  0  0  0  0  0  0  0  0
    4.9874    2.3743   -1.5592 H   0  0  0  0  0  0  0  0  0  0  0  0
    5.6398   -1.5328    0.1368 H   0  0  0  0  0  0  0  0  0  0  0  0
    3.2593   -1.7298    0.6035 H   0  0  0  0  0  0  0  0  0  0  0  0
    7.1763   -1.4107   -1.9098 H   0  0  0  0  0  0  0  0  0  0  0  0
    9.5595   -1.2136   -2.3745 H   0  0  0  0  0  0  0  0  0  0  0  0
    9.5582    2.7548   -0.6917 H   0  0  0  0  0  0  0  0  0  0  0  0
    7.1730    2.5600   -0.2360 H   0  0  0  0  0  0  0  0  0  0  0  0
   11.7304   -1.0892   -1.1757 H   0  0  0  0  0  0  0  0  0  0  0  0
   14.1307   -0.8869   -1.6620 H   0  0  0  0  0  0  0  0  0  0  0  0
   15.0501    1.2213   -2.5926 H   0  0  0  0  0  0  0  0  0  0  0  0
   13.5327    3.1297   -3.0521 H   0  0  0  0  0  0  0  0  0  0  0  0
   11.1232    2.9371   -2.6097 H   0  0  0  0  0  0  0  0  0  0  0  0
  1  2  2  0  0  0  0
  1  6  1  0  0  0  0
  1 25  1  0  0  0  0
  2  3  1  0  0  0  0
  2 26  1  0  0  0  0
  3  4  2  0  0  0  0
  3 27  1  0  0  0  0
  4  5  1  0  0  0  0
  4  7  1  0  0  0  0
  5  6  2  0  0  0  0
  5 28  1  0  0  0  0
  6 29  1  0  0  0  0
  7  8  2  0  0  0  0
  7 12  1  0  0  0  0
  8  9  1  0  0  0  0
  8 30  1  0  0  0  0
  9 10  2  0  0  0  0
  9 31  1  0  0  0  0
 10 11  1  0  0  0  0
 10 13  1  0  0  0  0
 11 12  2  0  0  0  0
 11 32  1  0  0  0  0
 12 33  1  0  0  0  0
 13 14  2  0  0  0  0
 13 18  1  0  0  0  0
 14 15  1  0  0  0  0
 14 34  1  0  0  0  0
 15 16  2  0  0  0  0
 15 35  1  0  0  0  0
 16 17  1  0  0  0  0
 16 19  1  0  0  0  0
 17 18  2  0  0  0  0
 17 36  1  0  0  0  0
 18 37  1  0  0  0  0
 19 20  2  0  0  0  0
 19 24  1  0  0  0  0
 20 21  1  0  0  0  0
 20 38  1  0  0  0  0
 21 22  2  0  0  0  0
 21 39  1  0  0  0  0
 22 23  1  0  0  0  0
 22 40  1  0  0  0  0
 23 24  2  0  0  0  0
 23 41  1  0  0  0  0
 24 42  1  0  0  0  0
M  END
$$$$