8296706 8296705
 OpenBabel01161410593D

 15 16  0  0  0  0  0  0  0  0999 V2000
   -1.9988    1.0780    0.2163 C   0  0  0  0  0  0  0  0  0  0  0  0
   -2.2243   -0.3843   -0.2721 C   0  0  0  0  0  0  0  0  0  0  0  0
   -1.1240   -1.2653    0.1418 N   0  0  0  0  0  0  0  0  0  0  0  0
    0.1280   -0.7316    0.0778 C   0  0  0  0  0  0  0  0  0  0  0  0
    0.3550    0.6715   -0.0505 C   0  0  0  0  0  0  0  0  0  0  0  0
   -0.6648    1.5691   -0.1545 N   0  0  0  0  0  0  0  0  0  0  0  0
    1.6613    0.9131   -0.0553 N   0  0  0  0  0  0  0  0  0  0  0  0
    2.2495   -0.3520    0.0489 O   0  0  0  0  0  0  0  0  0  0  0  0
    1.2923   -1.3696    0.1261 N   0  0  0  0  0  0  0  0  0  0  0  0
   -2.1019    1.1217    1.3075 H   0  0  0  0  0  0  0  0  0  0  0  0
   -2.7608    1.7332   -0.2183 H   0  0  0  0  0  0  0  0  0  0  0  0
   -2.2983   -0.3996   -1.3664 H   0  0  0  0  0  0  0  0  0  0  0  0
   -3.1674   -0.7663    0.1323 H   0  0  0  0  0  0  0  0  0  0  0  0
   -1.2194   -2.2494   -0.0852 H   0  0  0  0  0  0  0  0  0  0  0  0
   -0.4557    2.5347    0.0747 H   0  0  0  0  0  0  0  0  0  0  0  0
  1  2  1  0  0  0  0
  1  6  1  0  0  0  0
  1 10  1  0  0  0  0
  1 11  1  0  0  0  0
  2  3  1  0  0  0  0
  2 12  1  0  0  0  0
  2 13  1  0  0  0  0
  3  4  1  0  0  0  0
  3 14  1  0  0  0  0
  4  9  2  0  0  0  0
  4  5  1  0  0  0  0
  5  7  2  0  0  0  0
  5  6  1  0  0  0  0
  6 15  1  0  0  0  0
  7  8  1  0  0  0  0
  8  9  1  0  0  0  0
M  END
$$$$