45954249 45954248
 OpenBabel01161410533D

 41 43  0  0  0  0  0  0  0  0999 V2000
    7.7367    3.3201   -0.7607 O   0  0  0  0  0  0  0  0  0  0  0  0
    8.3345    2.5709   -2.0768 S   0  0  2  0  0  0  0  0  0  0  0  0
    7.4143    2.3306   -3.0289 H   0  0  0  0  0  0  0  0  0  0  0  0
    9.0877    1.1816   -1.3793 C   0  0  0  0  0  0  0  0  0  0  0  0
    9.7968    1.2278   -0.2743 N   0  0  0  0  0  0  0  0  0  0  0  0
   10.1824   -0.0727   -0.0502 C   0  0  0  0  0  0  0  0  0  0  0  0
    9.6658   -0.9222   -1.0266 C   0  0  0  0  0  0  0  0  0  0  0  0
    8.9780   -0.0878   -1.8679 N   0  0  0  0  0  0  0  0  0  0  0  0
    8.4680   -0.3545   -2.6957 H   0  0  0  0  0  0  0  0  0  0  0  0
    9.8734   -2.3030   -1.0250 C   0  0  0  0  0  0  0  0  0  0  0  0
   10.6557   -2.8205    0.0146 C   0  0  0  0  0  0  0  0  0  0  0  0
   11.2019   -1.9898    0.9967 C   0  0  0  0  0  0  0  0  0  0  0  0
   10.9717   -0.6083    0.9775 C   0  0  0  0  0  0  0  0  0  0  0  0
    9.6075    3.6997   -2.5393 C   0  0  0  0  0  0  0  0  0  0  0  0
   10.4550    3.0449   -3.6023 C   0  0  0  0  0  0  0  0  0  0  0  0
    9.7731    2.5753   -4.6831 N   0  0  0  0  0  0  0  0  0  0  0  0
   10.4767    2.0123   -5.6849 C   0  0  0  0  0  0  0  0  0  0  0  0
   11.8453    1.8598   -5.6618 C   0  0  0  0  0  0  0  0  0  0  0  0
   12.5381    2.3212   -4.5472 C   0  0  0  0  0  0  0  0  0  0  0  0
   11.8556    2.9697   -3.5066 C   0  0  0  0  0  0  0  0  0  0  0  0
   12.5965    3.5087   -2.3150 C   0  0  0  0  0  0  0  0  0  0  0  0
   13.9085    2.2225   -4.4779 O   0  0  0  0  0  0  0  0  0  0  0  0
   14.4003    0.8968   -4.7411 C   0  0  0  0  0  0  0  0  0  0  0  0
   15.8654    0.7509   -4.3468 C   0  0  0  0  0  0  0  0  0  0  0  0
   16.1280   -0.5274   -3.9847 F   0  0  0  0  0  0  0  0  0  0  0  0
   16.6800    1.0447   -5.3835 F   0  0  0  0  0  0  0  0  0  0  0  0
   16.2090    1.5417   -3.3117 F   0  0  0  0  0  0  0  0  0  0  0  0
    8.1501    3.0046    0.0866 H   0  0  0  0  0  0  0  0  0  0  0  0
    9.4495   -2.9495   -1.7857 H   0  0  0  0  0  0  0  0  0  0  0  0
   10.8422   -3.8917    0.0593 H   0  0  0  0  0  0  0  0  0  0  0  0
   11.8092   -2.4190    1.7903 H   0  0  0  0  0  0  0  0  0  0  0  0
   11.3879    0.0408    1.7401 H   0  0  0  0  0  0  0  0  0  0  0  0
    9.1307    4.5990   -2.9378 H   0  0  0  0  0  0  0  0  0  0  0  0
   10.1526    3.9561   -1.6294 H   0  0  0  0  0  0  0  0  0  0  0  0
    9.8891    1.6841   -6.5352 H   0  0  0  0  0  0  0  0  0  0  0  0
   12.3484    1.4210   -6.5166 H   0  0  0  0  0  0  0  0  0  0  0  0
   12.2327    4.5061   -2.0480 H   0  0  0  0  0  0  0  0  0  0  0  0
   13.6661    3.6252   -2.5089 H   0  0  0  0  0  0  0  0  0  0  0  0
   12.4744    2.8347   -1.4611 H   0  0  0  0  0  0  0  0  0  0  0  0
   14.3134    0.6728   -5.8118 H   0  0  0  0  0  0  0  0  0  0  0  0
   13.8060    0.1641   -4.1769 H   0  0  0  0  0  0  0  0  0  0  0  0
  1 28  1  0  0  0  0
  2  4  1  0  0  0  0
  2  3  1  6  0  0  0
  2 14  1  0  0  0  0
  2  1  1  0  0  0  0
  4  5  2  0  0  0  0
  4  8  1  0  0  0  0
  5  6  1  0  0  0  0
  6 13  1  0  0  0  0
  6  7  2  0  0  0  0
  7  8  1  0  0  0  0
  7 10  1  0  0  0  0
  8  9  1  0  0  0  0
 10 11  2  0  0  0  0
 10 29  1  0  0  0  0
 11 12  1  0  0  0  0
 11 30  1  0  0  0  0
 12 13  2  0  0  0  0
 12 31  1  0  0  0  0
 13 32  1  0  0  0  0
 14 15  1  0  0  0  0
 14 33  1  0  0  0  0
 14 34  1  0  0  0  0
 15 16  2  0  0  0  0
 15 20  1  0  0  0  0
 16 17  1  0  0  0  0
 17 18  2  0  0  0  0
 17 35  1  0  0  0  0
 18 19  1  0  0  0  0
 18 36  1  0  0  0  0
 19 20  2  0  0  0  0
 19 22  1  0  0  0  0
 20 21  1  0  0  0  0
 21 37  1  0  0  0  0
 21 38  1  0  0  0  0
 21 39  1  0  0  0  0
 22 23  1  0  0  0  0
 23 24  1  0  0  0  0
 23 40  1  0  0  0  0
 23 41  1  0  0  0  0
 24 27  1  0  0  0  0
 24 26  1  0  0  0  0
 24 25  1  0  0  0  0
M  END
$$$$