974642 974641
 OpenBabel01161410193D

 29 31  0  0  0  0  0  0  0  0999 V2000
   -1.5437    0.1825    0.9217 C   0  0  0  0  0  0  0  0  0  0  0  0
   -1.0137    1.0352   -0.0439 C   0  0  0  0  0  0  0  0  0  0  0  0
    0.3516    0.9956   -0.3332 C   0  0  0  0  0  0  0  0  0  0  0  0
    1.2082    0.1116    0.3440 C   0  0  0  0  0  0  0  0  0  0  0  0
    0.6607   -0.7358    1.3179 C   0  0  0  0  0  0  0  0  0  0  0  0
   -0.7082   -0.7030    1.6001 C   0  0  0  0  0  0  0  0  0  0  0  0
    2.6467    0.0703    0.0263 C   0  0  0  0  0  0  0  0  0  0  0  0
    3.5184    1.5574    0.1643 S   0  0  0  0  0  0  0  0  0  0  0  0
    4.9814    0.8401   -0.3177 C   0  0  0  0  0  0  0  0  0  0  0  0
    4.8340   -0.5035   -0.5604 C   0  0  0  0  0  0  0  0  0  0  0  0
    3.4892   -0.9765   -0.3472 C   0  0  0  0  0  0  0  0  0  0  0  0
    3.0764   -2.3780   -0.5077 C   0  0  0  0  0  0  0  0  0  0  0  0
    3.9352   -3.4014   -0.0721 C   0  0  0  0  0  0  0  0  0  0  0  0
    3.5896   -4.7462   -0.2299 C   0  0  0  0  0  0  0  0  0  0  0  0
    2.3741   -5.0871   -0.8156 C   0  0  0  0  0  0  0  0  0  0  0  0
    1.5128   -4.0845   -1.2561 C   0  0  0  0  0  0  0  0  0  0  0  0
    1.8681   -2.7387   -1.1170 C   0  0  0  0  0  0  0  0  0  0  0  0
   -2.6071    0.2093    1.1452 H   0  0  0  0  0  0  0  0  0  0  0  0
   -1.6602    1.7301   -0.5733 H   0  0  0  0  0  0  0  0  0  0  0  0
    0.7447    1.6632   -1.0981 H   0  0  0  0  0  0  0  0  0  0  0  0
    1.2967   -1.4321    1.8598 H   0  0  0  0  0  0  0  0  0  0  0  0
   -1.1214   -1.3712    2.3517 H   0  0  0  0  0  0  0  0  0  0  0  0
    5.8821    1.4325   -0.3983 H   0  0  0  0  0  0  0  0  0  0  0  0
    5.6580   -1.1298   -0.8809 H   0  0  0  0  0  0  0  0  0  0  0  0
    4.8853   -3.1627    0.4003 H   0  0  0  0  0  0  0  0  0  0  0  0
    4.2705   -5.5244    0.1062 H   0  0  0  0  0  0  0  0  0  0  0  0
    2.1002   -6.1322   -0.9326 H   0  0  0  0  0  0  0  0  0  0  0  0
    0.5632   -4.3478   -1.7145 H   0  0  0  0  0  0  0  0  0  0  0  0
    1.1852   -1.9823   -1.4949 H   0  0  0  0  0  0  0  0  0  0  0  0
  1  2  2  0  0  0  0
  1  6  1  0  0  0  0
  1 18  1  0  0  0  0
  2  3  1  0  0  0  0
  2 19  1  0  0  0  0
  3  4  2  0  0  0  0
  3 20  1  0  0  0  0
  4  5  1  0  0  0  0
  4  7  1  0  0  0  0
  5  6  2  0  0  0  0
  5 21  1  0  0  0  0
  6 22  1  0  0  0  0
  7  8  1  0  0  0  0
  7 11  2  0  0  0  0
  8  9  1  0  0  0  0
  9 10  2  0  0  0  0
  9 23  1  0  0  0  0
 10 11  1  0  0  0  0
 10 24  1  0  0  0  0
 11 12  1  0  0  0  0
 12 13  2  0  0  0  0
 12 17  1  0  0  0  0
 13 14  1  0  0  0  0
 13 25  1  0  0  0  0
 14 15  2  0  0  0  0
 14 26  1  0  0  0  0
 15 16  1  0  0  0  0
 15 27  1  0  0  0  0
 16 17  2  0  0  0  0
 16 28  1  0  0  0  0
 17 29  1  0  0  0  0
M  END
$$$$