4396859 4396858
 OpenBabel01161410573D

 40 39  0  0  0  0  0  0  0  0999 V2000
    5.2072    0.7636    0.8812 C   0  0  0  0  0  0  0  0  0  0  0  0
    4.7878   -0.2082   -0.2180 C   0  0  0  0  0  0  0  0  0  0  0  0
    3.4533    0.0547   -0.7933 N   0  0  0  0  0  0  0  0  0  0  0  0
    3.3506    1.4044   -1.3879 C   0  0  0  0  0  0  0  0  0  0  0  0
    1.9926    1.8067   -2.0413 C   0  0  0  0  0  0  0  0  0  0  0  0
    0.8098    1.7342   -1.0303 C   0  0  0  0  0  0  0  0  0  0  0  0
   -0.5827    2.0134   -1.4570 N   0  0  0  0  0  0  0  0  0  0  0  0
   -0.9832    3.4257   -1.4875 C   0  0  0  0  0  0  0  0  0  0  0  0
   -0.8715    4.1351   -0.1425 C   0  0  0  0  0  0  0  0  0  0  0  0
   -0.9978    1.3269   -2.6881 C   0  0  0  0  0  0  0  0  0  0  0  0
   -1.0772   -0.1858   -2.5254 C   0  0  0  0  0  0  0  0  0  0  0  0
    2.2336    3.4892   -2.7535 S   0  0  0  0  0  0  0  0  0  0  0  0
    3.0636   -1.0370   -1.7034 C   0  0  0  0  0  0  0  0  0  0  0  0
    3.8725   -1.1852   -2.9891 C   0  0  0  0  0  0  0  0  0  0  0  0
    6.1037    0.3877    1.3858 H   0  0  0  0  0  0  0  0  0  0  0  0
    4.4212    0.8788    1.6339 H   0  0  0  0  0  0  0  0  0  0  0  0
    5.4546    1.7490    0.4744 H   0  0  0  0  0  0  0  0  0  0  0  0
    4.7837   -1.2105    0.2295 H   0  0  0  0  0  0  0  0  0  0  0  0
    5.5615   -0.2064   -0.9945 H   0  0  0  0  0  0  0  0  0  0  0  0
    4.1566    1.5290   -2.1240 H   0  0  0  0  0  0  0  0  0  0  0  0
    3.5392    2.1351   -0.5910 H   0  0  0  0  0  0  0  0  0  0  0  0
    1.7995    1.1455   -2.8908 H   0  0  0  0  0  0  0  0  0  0  0  0
    1.0580    2.3382   -0.1496 H   0  0  0  0  0  0  0  0  0  0  0  0
    0.7886    0.7134   -0.6277 H   0  0  0  0  0  0  0  0  0  0  0  0
   -2.0448    3.4806   -1.7634 H   0  0  0  0  0  0  0  0  0  0  0  0
   -0.4504    3.9919   -2.2553 H   0  0  0  0  0  0  0  0  0  0  0  0
   -1.3844    3.5709    0.6438 H   0  0  0  0  0  0  0  0  0  0  0  0
   -1.3443    5.1212   -0.2043 H   0  0  0  0  0  0  0  0  0  0  0  0
    0.1680    4.2910    0.1578 H   0  0  0  0  0  0  0  0  0  0  0  0
   -0.3547    1.5880   -3.5356 H   0  0  0  0  0  0  0  0  0  0  0  0
   -2.0092    1.6516   -2.9650 H   0  0  0  0  0  0  0  0  0  0  0  0
   -0.0959   -0.6342   -2.3674 H   0  0  0  0  0  0  0  0  0  0  0  0
   -1.5021   -0.6363   -3.4285 H   0  0  0  0  0  0  0  0  0  0  0  0
   -1.7209   -0.4578   -1.6821 H   0  0  0  0  0  0  0  0  0  0  0  0
    2.3007    4.1383   -1.5807 H   0  0  0  0  0  0  0  0  0  0  0  0
    2.0106   -0.9249   -1.9688 H   0  0  0  0  0  0  0  0  0  0  0  0
    3.1022   -1.9875   -1.1555 H   0  0  0  0  0  0  0  0  0  0  0  0
    3.8706   -0.2676   -3.5844 H   0  0  0  0  0  0  0  0  0  0  0  0
    3.4357   -1.9762   -3.6085 H   0  0  0  0  0  0  0  0  0  0  0  0
    4.9097   -1.4663   -2.7843 H   0  0  0  0  0  0  0  0  0  0  0  0
  1  2  1  0  0  0  0
  1 15  1  0  0  0  0
  1 16  1  0  0  0  0
  1 17  1  0  0  0  0
  2  3  1  0  0  0  0
  2 18  1  0  0  0  0
  2 19  1  0  0  0  0
  3 13  1  0  0  0  0
  3  4  1  0  0  0  0
  4  5  1  0  0  0  0
  4 20  1  0  0  0  0
  4 21  1  0  0  0  0
  5 12  1  0  0  0  0
  5  6  1  0  0  0  0
  5 22  1  0  0  0  0
  6  7  1  0  0  0  0
  6 23  1  0  0  0  0
  6 24  1  0  0  0  0
  7 10  1  0  0  0  0
  7  8  1  0  0  0  0
  8  9  1  0  0  0  0
  8 25  1  0  0  0  0
  8 26  1  0  0  0  0
  9 27  1  0  0  0  0
  9 28  1  0  0  0  0
  9 29  1  0  0  0  0
 10 11  1  0  0  0  0
 10 30  1  0  0  0  0
 10 31  1  0  0  0  0
 11 32  1  0  0  0  0
 11 33  1  0  0  0  0
 11 34  1  0  0  0  0
 12 35  1  0  0  0  0
 13 14  1  0  0  0  0
 13 36  1  0  0  0  0
 13 37  1  0  0  0  0
 14 38  1  0  0  0  0
 14 39  1  0  0  0  0
 14 40  1  0  0  0  0
M  END
$$$$