30276302 30276301
 OpenBabel01161410053D

 27 28  0  0  0  0  0  0  0  0999 V2000
    3.3336   -1.5581    4.3395 C   0  0  0  0  0  0  0  0  0  0  0  0
    3.5009   -1.2456    2.8512 C   0  0  0  0  0  0  0  0  0  0  0  0
    2.3525   -0.3870    2.2903 C   0  0  0  0  0  0  0  0  0  0  0  0
    2.2434    0.9706    2.9004 C   0  0  0  0  0  0  0  0  0  0  0  0
    2.8374    2.0699    2.4839 N   0  0  0  0  0  0  0  0  0  0  0  0
    2.4481    3.0577    3.3543 C   0  0  0  0  0  0  0  0  0  0  0  0
    1.5866    2.5525    4.3216 C   0  0  0  0  0  0  0  0  0  0  0  0
    1.4607    1.2257    4.0002 N   0  0  0  0  0  0  0  0  0  0  0  0
    0.9041    0.5457    4.4972 H   0  0  0  0  0  0  0  0  0  0  0  0
    1.0371    3.3286    5.3436 C   0  0  0  0  0  0  0  0  0  0  0  0
    1.3955    4.6817    5.3592 C   0  0  0  0  0  0  0  0  0  0  0  0
    2.2565    5.2113    4.3939 C   0  0  0  0  0  0  0  0  0  0  0  0
    2.7950    4.4148    3.3795 C   0  0  0  0  0  0  0  0  0  0  0  0
    2.6646    6.8848    4.4570 Cl  0  0  0  0  0  0  0  0  0  0  0  0
    4.8770   -0.6335    2.5829 C   0  0  0  0  0  0  0  0  0  0  0  0
    4.0818   -2.2898    4.6636 H   0  0  0  0  0  0  0  0  0  0  0  0
    2.3445   -1.9825    4.5407 H   0  0  0  0  0  0  0  0  0  0  0  0
    3.4576   -0.6649    4.9606 H   0  0  0  0  0  0  0  0  0  0  0  0
    3.4650   -2.2041    2.3160 H   0  0  0  0  0  0  0  0  0  0  0  0
    1.4028   -0.9217    2.4201 H   0  0  0  0  0  0  0  0  0  0  0  0
    2.4885   -0.2697    1.2074 H   0  0  0  0  0  0  0  0  0  0  0  0
    0.3690    2.9128    6.0898 H   0  0  0  0  0  0  0  0  0  0  0  0
    0.9936    5.3263    6.1379 H   0  0  0  0  0  0  0  0  0  0  0  0
    3.4640    4.8182    2.6288 H   0  0  0  0  0  0  0  0  0  0  0  0
    5.0233    0.2998    3.1364 H   0  0  0  0  0  0  0  0  0  0  0  0
    5.0085   -0.4236    1.5161 H   0  0  0  0  0  0  0  0  0  0  0  0
    5.6704   -1.3256    2.8860 H   0  0  0  0  0  0  0  0  0  0  0  0
  1  2  1  0  0  0  0
  1 16  1  0  0  0  0
  1 17  1  0  0  0  0
  1 18  1  0  0  0  0
  2 15  1  0  0  0  0
  2  3  1  0  0  0  0
  2 19  1  0  0  0  0
  3  4  1  0  0  0  0
  3 20  1  0  0  0  0
  3 21  1  0  0  0  0
  4  5  2  0  0  0  0
  4  8  1  0  0  0  0
  5  6  1  0  0  0  0
  6 13  1  0  0  0  0
  6  7  2  0  0  0  0
  7  8  1  0  0  0  0
  7 10  1  0  0  0  0
  8  9  1  0  0  0  0
 10 11  2  0  0  0  0
 10 22  1  0  0  0  0
 11 12  1  0  0  0  0
 11 23  1  0  0  0  0
 12 13  2  0  0  0  0
 12 14  1  0  0  0  0
 13 24  1  0  0  0  0
 15 25  1  0  0  0  0
 15 26  1  0  0  0  0
 15 27  1  0  0  0  0
M  END
$$$$