13177710 13177709
 OpenBabel01161410073D

 54 57  0  0  0  0  0  0  0  0999 V2000
    5.6480   -1.3670   -1.3284 C   0  0  0  0  0  0  0  0  0  0  0  0
    4.8551   -0.4172   -0.4641 C   0  0  0  0  0  0  0  0  0  0  0  0
    5.4990    0.7931   -0.1223 C   0  0  0  0  0  0  0  0  0  0  0  0
    4.8858    1.7429    0.6892 C   0  0  0  0  0  0  0  0  0  0  0  0
    3.6131    1.5024    1.1741 C   0  0  0  0  0  0  0  0  0  0  0  0
    2.9477    0.3245    0.8279 C   0  0  0  0  0  0  0  0  0  0  0  0
    3.5291   -0.6613   -0.0114 C   0  0  0  0  0  0  0  0  0  0  0  0
    2.4772   -2.1927   -0.4346 Si  0  0  3  0  0  0  0  0  0  0  0  0
    2.8418   -2.7898   -2.1887 C   0  0  0  0  0  0  0  0  0  0  0  0
    3.2041   -4.1512   -2.3629 C   0  0  0  0  0  0  0  0  0  0  0  0
    3.4903   -4.6974   -3.6167 C   0  0  0  0  0  0  0  0  0  0  0  0
    3.4251   -3.9023   -4.7473 C   0  0  0  0  0  0  0  0  0  0  0  0
    3.0886   -2.5592   -4.6186 C   0  0  0  0  0  0  0  0  0  0  0  0
    2.8054   -1.9822   -3.3596 C   0  0  0  0  0  0  0  0  0  0  0  0
    2.5200   -0.4986   -3.3930 C   0  0  0  0  0  0  0  0  0  0  0  0
    2.8603   -3.5740    0.8231 C   0  0  0  0  0  0  0  0  0  0  0  0
    4.0708   -3.4894    1.5550 C   0  0  0  0  0  0  0  0  0  0  0  0
    4.4379   -4.4514    2.4993 C   0  0  0  0  0  0  0  0  0  0  0  0
    3.6007   -5.5246    2.7563 C   0  0  0  0  0  0  0  0  0  0  0  0
    2.4051   -5.6437    2.0556 C   0  0  0  0  0  0  0  0  0  0  0  0
    2.0268   -4.7017    1.0745 C   0  0  0  0  0  0  0  0  0  0  0  0
    0.7058   -4.9631    0.3894 C   0  0  0  0  0  0  0  0  0  0  0  0
    0.6545   -1.7396   -0.2486 C   0  0  0  0  0  0  0  0  0  0  0  0
   -0.1687   -1.4508   -1.3526 C   0  0  0  0  0  0  0  0  0  0  0  0
   -1.5067   -1.0770   -1.1883 C   0  0  0  0  0  0  0  0  0  0  0  0
   -2.0633   -1.0064    0.0836 C   0  0  0  0  0  0  0  0  0  0  0  0
   -1.2836   -1.3121    1.1929 C   0  0  0  0  0  0  0  0  0  0  0  0
    0.0580   -1.6705    1.0300 C   0  0  0  0  0  0  0  0  0  0  0  0
    5.5867   -2.3928   -0.9572 H   0  0  0  0  0  0  0  0  0  0  0  0
    6.7132   -1.1072   -1.3239 H   0  0  0  0  0  0  0  0  0  0  0  0
    5.3150   -1.3140   -2.3665 H   0  0  0  0  0  0  0  0  0  0  0  0
    6.5018    1.0025   -0.4903 H   0  0  0  0  0  0  0  0  0  0  0  0
    5.4037    2.6634    0.9428 H   0  0  0  0  0  0  0  0  0  0  0  0
    3.1259    2.2300    1.8178 H   0  0  0  0  0  0  0  0  0  0  0  0
    1.9465    0.2037    1.2352 H   0  0  0  0  0  0  0  0  0  0  0  0
    3.2826   -4.8288   -1.5133 H   0  0  0  0  0  0  0  0  0  0  0  0
    3.7658   -5.7455   -3.7005 H   0  0  0  0  0  0  0  0  0  0  0  0
    3.6444   -4.3203   -5.7255 H   0  0  0  0  0  0  0  0  0  0  0  0
    3.0569   -1.9433   -5.5163 H   0  0  0  0  0  0  0  0  0  0  0  0
    2.2902   -0.0641   -2.4215 H   0  0  0  0  0  0  0  0  0  0  0  0
    1.6611   -0.3026   -4.0446 H   0  0  0  0  0  0  0  0  0  0  0  0
    3.3906    0.0348   -3.7903 H   0  0  0  0  0  0  0  0  0  0  0  0
    4.7639   -2.6626    1.4064 H   0  0  0  0  0  0  0  0  0  0  0  0
    5.3777   -4.3525    3.0361 H   0  0  0  0  0  0  0  0  0  0  0  0
    3.8750   -6.2687    3.4987 H   0  0  0  0  0  0  0  0  0  0  0  0
    1.7584   -6.4920    2.2750 H   0  0  0  0  0  0  0  0  0  0  0  0
    0.7073   -4.6465   -0.6554 H   0  0  0  0  0  0  0  0  0  0  0  0
   -0.1058   -4.4684    0.9298 H   0  0  0  0  0  0  0  0  0  0  0  0
    0.4846   -6.0368    0.3742 H   0  0  0  0  0  0  0  0  0  0  0  0
    0.2070   -1.5118   -2.3701 H   0  0  0  0  0  0  0  0  0  0  0  0
   -2.1126   -0.8439   -2.0604 H   0  0  0  0  0  0  0  0  0  0  0  0
   -3.1036   -0.7197    0.2084 H   0  0  0  0  0  0  0  0  0  0  0  0
   -1.7161   -1.2723    2.1891 H   0  0  0  0  0  0  0  0  0  0  0  0
    0.6344   -1.9033    1.9261 H   0  0  0  0  0  0  0  0  0  0  0  0
  1  2  1  0  0  0  0
  1 29  1  0  0  0  0
  1 30  1  0  0  0  0
  1 31  1  0  0  0  0
  2  3  2  0  0  0  0
  2  7  1  0  0  0  0
  3  4  1  0  0  0  0
  3 32  1  0  0  0  0
  4  5  2  0  0  0  0
  4 33  1  0  0  0  0
  5  6  1  0  0  0  0
  5 34  1  0  0  0  0
  6  7  2  0  0  0  0
  6 35  1  0  0  0  0
  7  8  1  0  0  0  0
  8 23  1  0  0  0  0
  8 16  1  0  0  0  0
  8  9  1  0  0  0  0
  9 10  2  0  0  0  0
  9 14  1  0  0  0  0
 10 11  1  0  0  0  0
 10 36  1  0  0  0  0
 11 12  2  0  0  0  0
 11 37  1  0  0  0  0
 12 13  1  0  0  0  0
 12 38  1  0  0  0  0
 13 14  2  0  0  0  0
 13 39  1  0  0  0  0
 14 15  1  0  0  0  0
 15 40  1  0  0  0  0
 15 41  1  0  0  0  0
 15 42  1  0  0  0  0
 16 17  2  0  0  0  0
 16 21  1  0  0  0  0
 17 18  1  0  0  0  0
 17 43  1  0  0  0  0
 18 19  2  0  0  0  0
 18 44  1  0  0  0  0
 19 20  1  0  0  0  0
 19 45  1  0  0  0  0
 20 21  2  0  0  0  0
 20 46  1  0  0  0  0
 21 22  1  0  0  0  0
 22 47  1  0  0  0  0
 22 48  1  0  0  0  0
 22 49  1  0  0  0  0
 23 24  2  0  0  0  0
 23 28  1  0  0  0  0
 24 25  1  0  0  0  0
 24 50  1  0  0  0  0
 25 26  2  0  0  0  0
 25 51  1  0  0  0  0
 26 27  1  0  0  0  0
 26 52  1  0  0  0  0
 27 28  2  0  0  0  0
 27 53  1  0  0  0  0
 28 54  1  0  0  0  0
M  END
$$$$