31405576 31405575
 OpenBabel01161410523D

 25 25  0  0  0  0  0  0  0  0999 V2000
    0.8838   -0.3191   -1.1797 C   0  0  0  0  0  0  0  0  0  0  0  0
    2.3927   -0.3296   -0.9115 C   0  0  0  0  0  0  0  0  0  0  0  0
    2.7061    0.3432    0.3153 O   0  0  0  0  0  0  0  0  0  0  0  0
    2.2385   -0.2507    1.5200 C   0  0  0  0  0  0  0  0  0  0  0  0
    2.6711    0.6240    2.6560 C   0  0  0  0  0  0  0  0  0  0  0  0
    3.1791    0.0260    3.9438 C   0  0  0  0  0  0  0  0  0  0  0  0
    4.1309    0.7306    3.0186 C   0  0  0  0  0  0  0  0  0  0  0  0
    2.9425   -1.7609   -0.9397 C   0  0  0  0  0  0  0  0  0  0  0  0
    3.0963    0.4891   -2.0034 C   0  0  0  0  0  0  0  0  0  0  0  0
    0.6541   -0.6784   -2.1888 H   0  0  0  0  0  0  0  0  0  0  0  0
    0.4749    0.6915   -1.0678 H   0  0  0  0  0  0  0  0  0  0  0  0
    0.3449   -0.9586   -0.4727 H   0  0  0  0  0  0  0  0  0  0  0  0
    2.6562   -1.2552    1.6367 H   0  0  0  0  0  0  0  0  0  0  0  0
    1.1466   -0.3156    1.5203 H   0  0  0  0  0  0  0  0  0  0  0  0
    2.0826    1.5334    2.7056 H   0  0  0  0  0  0  0  0  0  0  0  0
    3.2641   -1.0516    4.0257 H   0  0  0  0  0  0  0  0  0  0  0  0
    2.9168    0.5208    4.8720 H   0  0  0  0  0  0  0  0  0  0  0  0
    4.5046    1.7055    3.3097 H   0  0  0  0  0  0  0  0  0  0  0  0
    4.8407    0.1364    2.4538 H   0  0  0  0  0  0  0  0  0  0  0  0
    2.8585   -2.2025   -1.9387 H   0  0  0  0  0  0  0  0  0  0  0  0
    2.3993   -2.4143   -0.2484 H   0  0  0  0  0  0  0  0  0  0  0  0
    3.9953   -1.7808   -0.6365 H   0  0  0  0  0  0  0  0  0  0  0  0
    2.9239    0.0724   -3.0014 H   0  0  0  0  0  0  0  0  0  0  0  0
    4.1778    0.5247   -1.8260 H   0  0  0  0  0  0  0  0  0  0  0  0
    2.7478    1.5286   -1.9973 H   0  0  0  0  0  0  0  0  0  0  0  0
  1  2  1  0  0  0  0
  1 10  1  0  0  0  0
  1 11  1  0  0  0  0
  1 12  1  0  0  0  0
  2  9  1  0  0  0  0
  2  8  1  0  0  0  0
  2  3  1  0  0  0  0
  3  4  1  0  0  0  0
  4  5  1  0  0  0  0
  4 13  1  0  0  0  0
  4 14  1  0  0  0  0
  5  7  1  0  0  0  0
  5  6  1  0  0  0  0
  5 15  1  0  0  0  0
  6  7  1  0  0  0  0
  6 16  1  0  0  0  0
  6 17  1  0  0  0  0
  7 18  1  0  0  0  0
  7 19  1  0  0  0  0
  8 20  1  0  0  0  0
  8 21  1  0  0  0  0
  8 22  1  0  0  0  0
  9 23  1  0  0  0  0
  9 24  1  0  0  0  0
  9 25  1  0  0  0  0
M  END
$$$$