43477712 43477711
 OpenBabel01161410093D

 26 25  0  0  0  0  0  0  0  0999 V2000
    1.6465    0.1375    0.3593 C   0  0  0  0  0  0  0  0  0  0  0  0
    3.0749    0.1609   -0.1753 C   0  0  0  0  0  0  0  0  0  0  0  0
    3.4258    1.3416   -1.5278 Si  0  0  0  0  0  0  0  0  0  0  0  0
    2.4798    1.1615   -2.8990 N   0  0  0  0  0  0  0  0  0  0  0  0
    2.4052   -0.0319   -3.7257 C   0  0  0  0  0  0  0  0  0  0  0  0
    3.1089    2.9563   -1.2140 N   0  0  0  0  0  0  0  0  0  0  0  0
    3.5654    3.7104   -0.0590 C   0  0  0  0  0  0  0  0  0  0  0  0
    4.9753    1.3514   -2.1508 N   0  0  0  0  0  0  0  0  0  0  0  0
    6.2123    1.4549   -1.3975 C   0  0  0  0  0  0  0  0  0  0  0  0
    1.5522   -0.6128    1.1516 H   0  0  0  0  0  0  0  0  0  0  0  0
    0.9263   -0.1151   -0.4270 H   0  0  0  0  0  0  0  0  0  0  0  0
    1.3602    1.1072    0.7812 H   0  0  0  0  0  0  0  0  0  0  0  0
    3.3210   -0.8540   -0.5110 H   0  0  0  0  0  0  0  0  0  0  0  0
    3.7449    0.3642    0.6687 H   0  0  0  0  0  0  0  0  0  0  0  0
    2.6802    1.9573   -3.4960 H   0  0  0  0  0  0  0  0  0  0  0  0
    2.1027   -0.9091   -3.1430 H   0  0  0  0  0  0  0  0  0  0  0  0
    3.3619   -0.2471   -4.2147 H   0  0  0  0  0  0  0  0  0  0  0  0
    1.6548    0.1117   -4.5104 H   0  0  0  0  0  0  0  0  0  0  0  0
    2.0975    3.0558   -1.2791 H   0  0  0  0  0  0  0  0  0  0  0  0
    4.6575    3.7709   -0.0198 H   0  0  0  0  0  0  0  0  0  0  0  0
    3.2034    3.2767    0.8796 H   0  0  0  0  0  0  0  0  0  0  0  0
    3.1892    4.7369   -0.1202 H   0  0  0  0  0  0  0  0  0  0  0  0
    4.9880    2.0594   -2.8779 H   0  0  0  0  0  0  0  0  0  0  0  0
    6.2512    0.7377   -0.5700 H   0  0  0  0  0  0  0  0  0  0  0  0
    6.3554    2.4627   -0.9945 H   0  0  0  0  0  0  0  0  0  0  0  0
    7.0600    1.2395   -2.0562 H   0  0  0  0  0  0  0  0  0  0  0  0
  1  2  1  0  0  0  0
  1 10  1  0  0  0  0
  1 11  1  0  0  0  0
  1 12  1  0  0  0  0
  2  3  1  0  0  0  0
  2 13  1  0  0  0  0
  2 14  1  0  0  0  0
  3  8  1  0  0  0  0
  3  6  1  0  0  0  0
  3  4  1  0  0  0  0
  4  5  1  0  0  0  0
  4 15  1  0  0  0  0
  5 16  1  0  0  0  0
  5 17  1  0  0  0  0
  5 18  1  0  0  0  0
  6  7  1  0  0  0  0
  6 19  1  0  0  0  0
  7 20  1  0  0  0  0
  7 21  1  0  0  0  0
  7 22  1  0  0  0  0
  8  9  1  0  0  0  0
  8 23  1  0  0  0  0
  9 24  1  0  0  0  0
  9 25  1  0  0  0  0
  9 26  1  0  0  0  0
M  END
$$$$