46008307 46008306
 OpenBabel01161410583D

 24 24  0  0  1  0  0  0  0  0999 V2000
    6.1346    0.5561    0.0757 C   0  0  0  0  0  0  0  0  0  0  0  0
    5.3981    1.1583    1.6168 S   0  0  0  0  0  0  0  0  0  0  0  0
    3.6589    1.4318    1.0446 C   0  0  2  0  0  0  0  0  0  0  0  0
    3.3838    0.5485    0.4585 H   0  0  0  0  0  0  0  0  0  0  0  0
    3.3911    2.7232    0.2505 C   0  0  2  0  0  0  0  0  0  0  0  0
    2.4324    2.6140   -0.2720 H   0  0  0  0  0  0  0  0  0  0  0  0
    4.3776    3.0364   -0.7207 O   0  0  0  0  0  0  0  0  0  0  0  0
    3.2583    3.8250    1.3099 C   0  0  1  0  0  0  0  0  0  0  0  0
    2.6286    4.6459    0.9534 H   0  0  0  0  0  0  0  0  0  0  0  0
    2.6564    3.1239    2.5379 C   0  0  1  0  0  0  0  0  0  0  0  0
    1.6258    3.4502    2.7165 H   0  0  0  0  0  0  0  0  0  0  0  0
    2.6751    1.6023    2.2314 C   0  0  2  0  0  0  0  0  0  0  0  0
    1.6741    1.3364    1.8647 H   0  0  0  0  0  0  0  0  0  0  0  0
    2.9408    0.7917    3.4345 N   0  0  0  0  0  0  0  0  0  0  0  0
    3.4228    3.4373    3.7069 O   0  0  0  0  0  0  0  0  0  0  0  0
    4.5528    4.3729    1.5948 O   0  0  0  0  0  0  0  0  0  0  0  0
    7.1378    0.1772    0.2912 H   0  0  0  0  0  0  0  0  0  0  0  0
    6.2300    1.3569   -0.6595 H   0  0  0  0  0  0  0  0  0  0  0  0
    5.5426   -0.2632   -0.3407 H   0  0  0  0  0  0  0  0  0  0  0  0
    5.0446    3.5662   -0.2284 H   0  0  0  0  0  0  0  0  0  0  0  0
    3.9590    0.8207    3.5883 H   0  0  0  0  0  0  0  0  0  0  0  0
    2.7743   -0.1916    3.2084 H   0  0  0  0  0  0  0  0  0  0  0  0
    3.2356    2.6951    4.3207 H   0  0  0  0  0  0  0  0  0  0  0  0
    4.6289    4.3358    2.5748 H   0  0  0  0  0  0  0  0  0  0  0  0
  1  2  1  0  0  0  0
  1 17  1  0  0  0  0
  1 18  1  0  0  0  0
  1 19  1  0  0  0  0
  3 12  1  0  0  0  0
  3  5  1  0  0  0  0
  3  4  1  6  0  0  0
  3  2  1  0  0  0  0
  5  8  1  0  0  0  0
  5  6  1  6  0  0  0
  5  7  1  0  0  0  0
  7 20  1  0  0  0  0
  8 10  1  0  0  0  0
  8 16  1  0  0  0  0
  8  9  1  6  0  0  0
 10 12  1  0  0  0  0
 10 15  1  0  0  0  0
 10 11  1  1  0  0  0
 12 14  1  0  0  0  0
 12 13  1  6  0  0  0
 14 21  1  0  0  0  0
 14 22  1  0  0  0  0
 15 23  1  0  0  0  0
 16 24  1  0  0  0  0
M  END
$$$$