924382 924381
 OpenBabel01161410583D

 20 20  0  0  0  0  0  0  0  0999 V2000
    3.2087   -1.2270    0.1740 C   0  0  0  0  0  0  0  0  0  0  0  0
    2.4312   -0.1361   -0.4111 N   0  0  0  0  0  0  0  0  0  0  0  0
    3.0301    1.0756   -0.6486 C   0  0  0  0  0  0  0  0  0  0  0  0
    2.4471    2.2887   -0.3398 C   0  0  0  0  0  0  0  0  0  0  0  0
    3.4389    3.6247   -0.7233 S   0  0  0  0  0  0  0  0  0  0  0  0
    4.6499    2.6001   -1.3459 C   0  0  0  0  0  0  0  0  0  0  0  0
    4.3192    1.2572   -1.2715 C   0  0  0  0  0  0  0  0  0  0  0  0
    5.2011    0.1808   -1.8142 C   0  0  0  0  0  0  0  0  0  0  0  0
    0.9874   -0.2275   -0.2042 C   0  0  0  0  0  0  0  0  0  0  0  0
    2.5890   -1.8586    0.8214 H   0  0  0  0  0  0  0  0  0  0  0  0
    4.0321   -0.8539    0.7933 H   0  0  0  0  0  0  0  0  0  0  0  0
    3.6135   -1.8681   -0.6149 H   0  0  0  0  0  0  0  0  0  0  0  0
    1.4888    2.4706    0.1222 H   0  0  0  0  0  0  0  0  0  0  0  0
    5.5508    3.0330   -1.7588 H   0  0  0  0  0  0  0  0  0  0  0  0
    4.6204   -0.5452   -2.3917 H   0  0  0  0  0  0  0  0  0  0  0  0
    5.7181   -0.3386   -1.0018 H   0  0  0  0  0  0  0  0  0  0  0  0
    5.9634    0.5940   -2.4842 H   0  0  0  0  0  0  0  0  0  0  0  0
    0.6426   -1.2565   -0.3526 H   0  0  0  0  0  0  0  0  0  0  0  0
    0.4417    0.3938   -0.9228 H   0  0  0  0  0  0  0  0  0  0  0  0
    0.7202    0.0811    0.8120 H   0  0  0  0  0  0  0  0  0  0  0  0
  1  2  1  0  0  0  0
  1 10  1  0  0  0  0
  1 11  1  0  0  0  0
  1 12  1  0  0  0  0
  2  9  1  0  0  0  0
  2  3  1  0  0  0  0
  3  4  2  0  0  0  0
  3  7  1  0  0  0  0
  4  5  1  0  0  0  0
  4 13  1  0  0  0  0
  5  6  1  0  0  0  0
  6  7  2  0  0  0  0
  6 14  1  0  0  0  0
  7  8  1  0  0  0  0
  8 15  1  0  0  0  0
  8 16  1  0  0  0  0
  8 17  1  0  0  0  0
  9 18  1  0  0  0  0
  9 19  1  0  0  0  0
  9 20  1  0  0  0  0
M  END
$$$$