970002 970001
 OpenBabel01161410203D

 16 16  0  0  0  0  0  0  0  0999 V2000
    2.7519    0.5170   -1.3697 C   0  0  0  0  0  0  0  0  0  0  0  0
    2.4027   -0.0257    0.0046 C   0  0  0  0  0  0  0  0  0  0  0  0
    2.9097   -1.3709    0.2076 N   0  0  0  0  0  0  0  0  0  0  0  0
    4.1340   -1.6829    0.7378 C   0  0  0  0  0  0  0  0  0  0  0  0
    4.2397   -3.0562    0.7791 C   0  0  0  0  0  0  0  0  0  0  0  0
    3.0353   -3.5883    0.2602 C   0  0  0  0  0  0  0  0  0  0  0  0
    2.2296   -2.5244   -0.0825 C   0  0  0  0  0  0  0  0  0  0  0  0
    2.3563    1.5302   -1.4899 H   0  0  0  0  0  0  0  0  0  0  0  0
    2.3297   -0.1110   -2.1615 H   0  0  0  0  0  0  0  0  0  0  0  0
    3.8367    0.5539   -1.5160 H   0  0  0  0  0  0  0  0  0  0  0  0
    1.3165   -0.0543    0.1442 H   0  0  0  0  0  0  0  0  0  0  0  0
    2.8239    0.6114    0.7900 H   0  0  0  0  0  0  0  0  0  0  0  0
    4.8298   -0.9110    1.0394 H   0  0  0  0  0  0  0  0  0  0  0  0
    5.0921   -3.6137    1.1447 H   0  0  0  0  0  0  0  0  0  0  0  0
    2.7817   -4.6345    0.1494 H   0  0  0  0  0  0  0  0  0  0  0  0
    1.2353   -2.4992   -0.5088 H   0  0  0  0  0  0  0  0  0  0  0  0
  1  2  1  0  0  0  0
  1  8  1  0  0  0  0
  1  9  1  0  0  0  0
  1 10  1  0  0  0  0
  2  3  1  0  0  0  0
  2 11  1  0  0  0  0
  2 12  1  0  0  0  0
  3  4  1  0  0  0  0
  3  7  1  0  0  0  0
  4  5  2  0  0  0  0
  4 13  1  0  0  0  0
  5  6  1  0  0  0  0
  5 14  1  0  0  0  0
  6  7  2  0  0  0  0
  6 15  1  0  0  0  0
  7 16  1  0  0  0  0
M  END
$$$$