728095 728094
 OpenBabel01161410453D

 12 12  0  0  0  0  0  0  0  0999 V2000
    3.5481    0.4878   -0.8058 O   0  0  0  0  0  0  0  0  0  0  0  0
    2.3647    0.0303   -0.1681 C   0  0  0  0  0  0  0  0  0  0  0  0
    2.7855   -0.7727    1.0067 C   0  0  0  0  0  0  0  0  0  0  0  0
    3.5342   -0.3900    2.1032 C   0  0  0  0  0  0  0  0  0  0  0  0
    3.7428   -1.3623    3.0632 N   0  0  0  0  0  0  0  0  0  0  0  0
    3.1691   -2.4787    2.6739 C   0  0  0  0  0  0  0  0  0  0  0  0
    2.3394   -2.4224    1.1745 S   0  0  0  0  0  0  0  0  0  0  0  0
    3.2701    0.9551   -1.6108 H   0  0  0  0  0  0  0  0  0  0  0  0
    1.7801   -0.5513   -0.8874 H   0  0  0  0  0  0  0  0  0  0  0  0
    1.7768    0.8972    0.1487 H   0  0  0  0  0  0  0  0  0  0  0  0
    3.9541    0.5980    2.2511 H   0  0  0  0  0  0  0  0  0  0  0  0
    3.2106   -3.3848    3.2637 H   0  0  0  0  0  0  0  0  0  0  0  0
  1  2  1  0  0  0  0
  1  8  1  0  0  0  0
  2  3  1  0  0  0  0
  2  9  1  0  0  0  0
  2 10  1  0  0  0  0
  3  4  2  0  0  0  0
  3  7  1  0  0  0  0
  4  5  1  0  0  0  0
  4 11  1  0  0  0  0
  5  6  2  0  0  0  0
  6  7  1  0  0  0  0
  6 12  1  0  0  0  0
M  END
$$$$