26754494 26754493
 OpenBabel01161409453D

 46 46  0  0  1  0  0  0  0  0999 V2000
    0.9764    0.0086   -0.4017 C   0  0  0  0  0  0  0  0  0  0  0  0
    2.4237    0.1959    0.0635 C   0  0  0  0  0  0  0  0  0  0  0  0
    2.9328    1.6184   -0.0878 C   0  0  0  0  0  0  0  0  0  0  0  0
    2.1438    2.7356    0.1848 C   0  0  0  0  0  0  0  0  0  0  0  0
    2.5995    4.0596   -0.0200 C   0  0  0  0  0  0  0  0  0  0  0  0
    1.6403    5.1896    0.3686 C   0  0  0  0  0  0  0  0  0  0  0  0
    0.2198    4.9990   -0.1856 C   0  0  0  0  0  0  0  0  0  0  0  0
    1.5955    5.3596    1.8923 C   0  0  0  0  0  0  0  0  0  0  0  0
    3.9240    4.2693   -0.5113 C   0  0  0  0  0  0  0  0  0  0  0  0
    4.7829    3.1346   -0.6548 C   0  0  0  0  0  0  0  0  0  0  0  0
    4.2551    1.8385   -0.4675 C   0  0  0  0  0  0  0  0  0  0  0  0
    6.2811    3.2352   -0.9628 C   0  0  0  0  0  0  0  0  0  0  0  0
    7.1250    2.6807    0.1948 C   0  0  0  0  0  0  0  0  0  0  0  0
    6.6448    2.5448   -2.2819 C   0  0  0  0  0  0  0  0  0  0  0  0
    4.4588    5.6584   -0.8712 C   0  0  1  0  0  0  0  0  0  0  0  0
    5.2560    5.5625   -1.6085 H   0  0  0  0  0  0  0  0  0  0  0  0
    3.4928    6.4479   -1.5641 O   0  0  0  0  0  0  0  0  0  0  0  0
    4.9957    6.4057    0.3438 C   0  0  0  0  0  0  0  0  0  0  0  0
    2.5946   -0.2895    1.5028 C   0  0  0  0  0  0  0  0  0  0  0  0
    0.7136   -1.0548   -0.4164 H   0  0  0  0  0  0  0  0  0  0  0  0
    0.8321    0.4020   -1.4146 H   0  0  0  0  0  0  0  0  0  0  0  0
    0.2611    0.5098    0.2607 H   0  0  0  0  0  0  0  0  0  0  0  0
    3.0353   -0.4485   -0.5833 H   0  0  0  0  0  0  0  0  0  0  0  0
    1.1405    2.5763    0.5718 H   0  0  0  0  0  0  0  0  0  0  0  0
    1.9784    6.1448   -0.0292 H   0  0  0  0  0  0  0  0  0  0  0  0
   -0.3238    4.1992    0.3287 H   0  0  0  0  0  0  0  0  0  0  0  0
    0.2376    4.7654   -1.2553 H   0  0  0  0  0  0  0  0  0  0  0  0
   -0.3643    5.9163   -0.0520 H   0  0  0  0  0  0  0  0  0  0  0  0
    1.1994    4.4699    2.3914 H   0  0  0  0  0  0  0  0  0  0  0  0
    0.9600    6.2086    2.1642 H   0  0  0  0  0  0  0  0  0  0  0  0
    2.5951    5.5493    2.2971 H   0  0  0  0  0  0  0  0  0  0  0  0
    4.8991    0.9720   -0.6134 H   0  0  0  0  0  0  0  0  0  0  0  0
    6.5922    4.2762   -1.0603 H   0  0  0  0  0  0  0  0  0  0  0  0
    6.9724    1.6074    0.3456 H   0  0  0  0  0  0  0  0  0  0  0  0
    6.8776    3.1896    1.1332 H   0  0  0  0  0  0  0  0  0  0  0  0
    8.1914    2.8385    0.0008 H   0  0  0  0  0  0  0  0  0  0  0  0
    6.4952    1.4612   -2.2361 H   0  0  0  0  0  0  0  0  0  0  0  0
    7.6979    2.7187   -2.5263 H   0  0  0  0  0  0  0  0  0  0  0  0
    6.0386    2.9332   -3.1068 H   0  0  0  0  0  0  0  0  0  0  0  0
    3.8458    7.3512   -1.6244 H   0  0  0  0  0  0  0  0  0  0  0  0
    4.1919    6.6969    1.0256 H   0  0  0  0  0  0  0  0  0  0  0  0
    5.4827    7.3358    0.0302 H   0  0  0  0  0  0  0  0  0  0  0  0
    5.7242    5.8080    0.9008 H   0  0  0  0  0  0  0  0  0  0  0  0
    2.0056    0.3126    2.2035 H   0  0  0  0  0  0  0  0  0  0  0  0
    3.6435   -0.2335    1.8150 H   0  0  0  0  0  0  0  0  0  0  0  0
    2.2741   -1.3326    1.5997 H   0  0  0  0  0  0  0  0  0  0  0  0
  1  2  1  0  0  0  0
  1 20  1  0  0  0  0
  1 21  1  0  0  0  0
  1 22  1  0  0  0  0
  2 19  1  0  0  0  0
  2  3  1  0  0  0  0
  2 23  1  0  0  0  0
  3 11  1  0  0  0  0
  3  4  2  0  0  0  0
  4  5  1  0  0  0  0
  4 24  1  0  0  0  0
  5  9  2  0  0  0  0
  5  6  1  0  0  0  0
  6  8  1  0  0  0  0
  6  7  1  0  0  0  0
  6 25  1  0  0  0  0
  7 26  1  0  0  0  0
  7 27  1  0  0  0  0
  7 28  1  0  0  0  0
  8 29  1  0  0  0  0
  8 30  1  0  0  0  0
  8 31  1  0  0  0  0
  9 10  1  0  0  0  0
  9 15  1  0  0  0  0
 10 11  2  0  0  0  0
 10 12  1  0  0  0  0
 11 32  1  0  0  0  0
 12 14  1  0  0  0  0
 12 13  1  0  0  0  0
 12 33  1  0  0  0  0
 13 34  1  0  0  0  0
 13 35  1  0  0  0  0
 13 36  1  0  0  0  0
 14 37  1  0  0  0  0
 14 38  1  0  0  0  0
 14 39  1  0  0  0  0
 15 18  1  0  0  0  0
 15 17  1  0  0  0  0
 15 16  1  6  0  0  0
 17 40  1  0  0  0  0
 18 41  1  0  0  0  0
 18 42  1  0  0  0  0
 18 43  1  0  0  0  0
 19 44  1  0  0  0  0
 19 45  1  0  0  0  0
 19 46  1  0  0  0  0
M  END
$$$$