44786713 44786712
 OpenBabel01161410113D

 36 38  0  0  0  0  0  0  0  0999 V2000
    1.1335   -0.3001    1.1311 C   0  0  0  0  0  0  0  0  0  0  0  0
    2.5603   -0.1943    0.6820 C   0  0  0  0  0  0  0  0  0  0  0  0
    2.8778    0.0167   -0.6639 C   0  0  0  0  0  0  0  0  0  0  0  0
    4.2119    0.0870   -1.0760 C   0  0  0  0  0  0  0  0  0  0  0  0
    5.2527   -0.0581   -0.1495 C   0  0  0  0  0  0  0  0  0  0  0  0
    4.9300   -0.2738    1.1976 C   0  0  0  0  0  0  0  0  0  0  0  0
    3.5974   -0.3453    1.6090 C   0  0  0  0  0  0  0  0  0  0  0  0
    6.6961    0.0148   -0.5871 C   0  0  0  0  0  0  0  0  0  0  0  0
    7.3813   -1.2509   -0.3375 N   0  0  0  0  0  0  0  0  0  0  0  0
    8.7681   -1.1940   -0.7966 C   0  0  0  0  0  0  0  0  0  0  0  0
    9.3680   -2.5561   -0.6332 C   0  0  0  0  0  0  0  0  0  0  0  0
   10.0054   -3.0463    0.4929 C   0  0  0  0  0  0  0  0  0  0  0  0
   10.5234   -4.6571    0.2232 S   0  0  0  0  0  0  0  0  0  0  0  0
    9.8548   -4.5907   -1.3512 C   0  0  0  0  0  0  0  0  0  0  0  0
    9.2808   -3.4569   -1.6883 N   0  0  0  0  0  0  0  0  0  0  0  0
    9.9284   -5.7839   -2.3062 C   0  0  0  0  0  0  0  0  0  0  0  0
    8.7627   -6.0294   -3.2444 C   0  0  0  0  0  0  0  0  0  0  0  0
   10.0452   -5.5074   -3.7932 C   0  0  0  0  0  0  0  0  0  0  0  0
    0.4413    0.0121    0.3424 H   0  0  0  0  0  0  0  0  0  0  0  0
    0.9584    0.3453    1.9980 H   0  0  0  0  0  0  0  0  0  0  0  0
    0.9014   -1.3354    1.4010 H   0  0  0  0  0  0  0  0  0  0  0  0
    2.0888    0.1255   -1.4042 H   0  0  0  0  0  0  0  0  0  0  0  0
    4.4303    0.2507   -2.1289 H   0  0  0  0  0  0  0  0  0  0  0  0
    5.7240   -0.4028    1.9303 H   0  0  0  0  0  0  0  0  0  0  0  0
    3.3747   -0.5257    2.6582 H   0  0  0  0  0  0  0  0  0  0  0  0
    7.1809    0.8307   -0.0371 H   0  0  0  0  0  0  0  0  0  0  0  0
    6.7457    0.2690   -1.6532 H   0  0  0  0  0  0  0  0  0  0  0  0
    6.9058   -1.9892   -0.8598 H   0  0  0  0  0  0  0  0  0  0  0  0
    9.3379   -0.4636   -0.2105 H   0  0  0  0  0  0  0  0  0  0  0  0
    8.8240   -0.9024   -1.8522 H   0  0  0  0  0  0  0  0  0  0  0  0
   10.1769   -2.5470    1.4349 H   0  0  0  0  0  0  0  0  0  0  0  0
   10.4415   -6.6585   -1.9216 H   0  0  0  0  0  0  0  0  0  0  0  0
    7.9144   -5.3541   -3.2018 H   0  0  0  0  0  0  0  0  0  0  0  0
    8.4960   -7.0583   -3.4567 H   0  0  0  0  0  0  0  0  0  0  0  0
   10.6605   -6.1761   -4.3828 H   0  0  0  0  0  0  0  0  0  0  0  0
   10.0699   -4.4755   -4.1276 H   0  0  0  0  0  0  0  0  0  0  0  0
  1  2  1  0  0  0  0
  1 19  1  0  0  0  0
  1 20  1  0  0  0  0
  1 21  1  0  0  0  0
  2  3  2  0  0  0  0
  2  7  1  0  0  0  0
  3  4  1  0  0  0  0
  3 22  1  0  0  0  0
  4  5  2  0  0  0  0
  4 23  1  0  0  0  0
  5  6  1  0  0  0  0
  5  8  1  0  0  0  0
  6  7  2  0  0  0  0
  6 24  1  0  0  0  0
  7 25  1  0  0  0  0
  8  9  1  0  0  0  0
  8 26  1  0  0  0  0
  8 27  1  0  0  0  0
  9 10  1  0  0  0  0
  9 28  1  0  0  0  0
 10 11  1  0  0  0  0
 10 29  1  0  0  0  0
 10 30  1  0  0  0  0
 11 12  2  0  0  0  0
 11 15  1  0  0  0  0
 12 13  1  0  0  0  0
 12 31  1  0  0  0  0
 13 14  1  0  0  0  0
 14 15  2  0  0  0  0
 14 16  1  0  0  0  0
 16 18  1  0  0  0  0
 16 17  1  0  0  0  0
 16 32  1  0  0  0  0
 17 18  1  0  0  0  0
 17 33  1  0  0  0  0
 17 34  1  0  0  0  0
 18 35  1  0  0  0  0
 18 36  1  0  0  0  0
M  END
$$$$