44199488 44199487
 OpenBabel01161410053D

 27 28  0  0  0  0  0  0  0  0999 V2000
    0.4563   -0.3393   -0.7549 N   0  0  0  0  0  0  0  0  0  0  0  0
    1.7586   -0.3376   -0.4133 C   0  0  0  0  0  0  0  0  0  0  0  0
    2.3638    0.4435    0.5430 C   0  0  0  0  0  0  0  0  0  0  0  0
    3.7603    0.1810    0.6492 C   0  0  0  0  0  0  0  0  0  0  0  0
    4.1906   -0.7968   -0.2313 C   0  0  0  0  0  0  0  0  0  0  0  0
    2.8817   -1.3685   -1.1762 S   0  0  0  0  0  0  0  0  0  0  0  0
    5.6131   -1.3070   -0.3824 C   0  0  0  0  0  0  0  0  0  0  0  0
    5.7606   -2.8342   -0.2690 C   0  0  0  0  0  0  0  0  0  0  0  0
    5.6029   -3.5996   -1.5822 C   0  0  0  0  0  0  0  0  0  0  0  0
    6.4274   -2.9889   -2.7084 C   0  0  0  0  0  0  0  0  0  0  0  0
    6.1113   -1.5109   -2.8984 C   0  0  0  0  0  0  0  0  0  0  0  0
    6.3277   -0.7209   -1.6111 C   0  0  0  0  0  0  0  0  0  0  0  0
   -0.2384    0.0829   -0.1481 H   0  0  0  0  0  0  0  0  0  0  0  0
    0.1034   -1.1012   -1.3263 H   0  0  0  0  0  0  0  0  0  0  0  0
    1.8347    1.1742    1.1400 H   0  0  0  0  0  0  0  0  0  0  0  0
    4.4206    0.6912    1.3403 H   0  0  0  0  0  0  0  0  0  0  0  0
    6.1441   -0.8993    0.4928 H   0  0  0  0  0  0  0  0  0  0  0  0
    5.0702   -3.2400    0.4801 H   0  0  0  0  0  0  0  0  0  0  0  0
    6.7718   -3.0425    0.1071 H   0  0  0  0  0  0  0  0  0  0  0  0
    5.9119   -4.6405   -1.4310 H   0  0  0  0  0  0  0  0  0  0  0  0
    4.5507   -3.6371   -1.8797 H   0  0  0  0  0  0  0  0  0  0  0  0
    7.4954   -3.1100   -2.4872 H   0  0  0  0  0  0  0  0  0  0  0  0
    6.2331   -3.5302   -3.6417 H   0  0  0  0  0  0  0  0  0  0  0  0
    6.7543   -1.1011   -3.6857 H   0  0  0  0  0  0  0  0  0  0  0  0
    5.0808   -1.3937   -3.2486 H   0  0  0  0  0  0  0  0  0  0  0  0
    7.4064   -0.7132   -1.4033 H   0  0  0  0  0  0  0  0  0  0  0  0
    6.0398    0.3253   -1.7693 H   0  0  0  0  0  0  0  0  0  0  0  0
  1  2  1  0  0  0  0
  1 13  1  0  0  0  0
  1 14  1  0  0  0  0
  2  3  2  0  0  0  0
  2  6  1  0  0  0  0
  3  4  1  0  0  0  0
  3 15  1  0  0  0  0
  4  5  2  0  0  0  0
  4 16  1  0  0  0  0
  5  6  1  0  0  0  0
  5  7  1  0  0  0  0
  7 12  1  0  0  0  0
  7  8  1  0  0  0  0
  7 17  1  0  0  0  0
  8  9  1  0  0  0  0
  8 18  1  0  0  0  0
  8 19  1  0  0  0  0
  9 10  1  0  0  0  0
  9 20  1  0  0  0  0
  9 21  1  0  0  0  0
 10 11  1  0  0  0  0
 10 22  1  0  0  0  0
 10 23  1  0  0  0  0
 11 12  1  0  0  0  0
 11 24  1  0  0  0  0
 11 25  1  0  0  0  0
 12 26  1  0  0  0  0
 12 27  1  0  0  0  0
M  END
$$$$