596458 596457
 OpenBabel01161410573D

 45 48  0  0  1  0  0  0  0  0999 V2000
   11.5331    7.5195   -2.9388 C   0  0  0  0  0  0  0  0  0  0  0  0
   11.4218    6.2235   -2.1229 C   0  0  3  0  0  0  0  0  0  0  0  0
   12.8048    5.5844   -1.9192 C   0  0  0  0  0  0  0  0  0  0  0  0
   13.6883    6.3723   -0.9580 C   0  0  0  0  0  0  0  0  0  0  0  0
   13.0112    6.5883    0.3877 C   0  0  0  0  0  0  0  0  0  0  0  0
   11.6052    7.1712    0.2620 C   0  0  0  0  0  0  0  0  0  0  0  0
   10.6952    6.4796   -0.7783 C   0  0  3  0  0  0  0  0  0  0  0  0
   10.0217    5.2039   -0.2648 C   0  0  0  0  0  0  0  0  0  0  0  0
   10.7620    4.4211    0.5533 N   0  0  0  0  0  0  0  0  0  0  0  0
   10.2039    3.2883    1.0169 C   0  0  0  0  0  0  0  0  0  0  0  0
    8.9582    2.8852    0.7186 N   0  0  0  0  0  0  0  0  0  0  0  0
    8.2361    3.6509   -0.1013 C   0  0  0  0  0  0  0  0  0  0  0  0
    8.7143    4.8472   -0.6561 C   0  0  0  0  0  0  0  0  0  0  0  0
    7.8695    5.5752   -1.5380 C   0  0  0  0  0  0  0  0  0  0  0  0
    6.5822    5.1309   -1.8374 C   0  0  0  0  0  0  0  0  0  0  0  0
    6.1188    3.9544   -1.2698 C   0  0  0  0  0  0  0  0  0  0  0  0
    6.9497    3.2291   -0.4143 C   0  0  0  0  0  0  0  0  0  0  0  0
   11.0047    2.4274    1.9147 C   0  0  0  0  0  0  0  0  0  0  0  0
   12.3283    2.7524    2.2674 C   0  0  0  0  0  0  0  0  0  0  0  0
   13.0840    1.9420    3.1215 C   0  0  0  0  0  0  0  0  0  0  0  0
   12.5319    0.7780    3.6451 C   0  0  0  0  0  0  0  0  0  0  0  0
   11.2281    0.4246    3.3134 C   0  0  0  0  0  0  0  0  0  0  0  0
   10.4767    1.2397    2.4594 C   0  0  0  0  0  0  0  0  0  0  0  0
   10.5378    7.9160   -3.1664 H   0  0  0  0  0  0  0  0  0  0  0  0
   12.0404    7.3342   -3.8917 H   0  0  0  0  0  0  0  0  0  0  0  0
   12.0879    8.2993   -2.4088 H   0  0  0  0  0  0  0  0  0  0  0  0
   10.8271    5.5299   -2.7327 H   0  0  0  0  0  0  0  0  0  0  0  0
   13.3175    5.4859   -2.8837 H   0  0  0  0  0  0  0  0  0  0  0  0
   12.6802    4.5643   -1.5352 H   0  0  0  0  0  0  0  0  0  0  0  0
   14.6320    5.8350   -0.8071 H   0  0  0  0  0  0  0  0  0  0  0  0
   13.9512    7.3414   -1.3969 H   0  0  0  0  0  0  0  0  0  0  0  0
   12.9747    5.6392    0.9262 H   0  0  0  0  0  0  0  0  0  0  0  0
   13.6262    7.2572    1.0013 H   0  0  0  0  0  0  0  0  0  0  0  0
   11.1229    7.1775    1.2476 H   0  0  0  0  0  0  0  0  0  0  0  0
   11.7113    8.2255   -0.0266 H   0  0  0  0  0  0  0  0  0  0  0  0
    9.8909    7.2063   -0.9464 H   0  0  0  0  0  0  0  0  0  0  0  0
    8.2060    6.4961   -2.0060 H   0  0  0  0  0  0  0  0  0  0  0  0
    5.9473    5.7020   -2.5101 H   0  0  0  0  0  0  0  0  0  0  0  0
    5.1175    3.5936   -1.4898 H   0  0  0  0  0  0  0  0  0  0  0  0
    6.5812    2.3029    0.0225 H   0  0  0  0  0  0  0  0  0  0  0  0
   12.7888    3.6541    1.8728 H   0  0  0  0  0  0  0  0  0  0  0  0
   14.1023    2.2257    3.3747 H   0  0  0  0  0  0  0  0  0  0  0  0
   13.1169    0.1478    4.3094 H   0  0  0  0  0  0  0  0  0  0  0  0
   10.7902   -0.4843    3.7172 H   0  0  0  0  0  0  0  0  0  0  0  0
    9.4585    0.9380    2.2181 H   0  0  0  0  0  0  0  0  0  0  0  0
  1  2  1  0  0  0  0
  1 24  1  0  0  0  0
  1 25  1  0  0  0  0
  1 26  1  0  0  0  0
  2  7  1  0  0  0  0
  2  3  1  0  0  0  0
  2 27  1  0  0  0  0
  3  4  1  0  0  0  0
  3 28  1  0  0  0  0
  3 29  1  0  0  0  0
  4  5  1  0  0  0  0
  4 30  1  0  0  0  0
  4 31  1  0  0  0  0
  5  6  1  0  0  0  0
  5 32  1  0  0  0  0
  5 33  1  0  0  0  0
  6  7  1  0  0  0  0
  6 34  1  0  0  0  0
  6 35  1  0  0  0  0
  7  8  1  0  0  0  0
  7 36  1  0  0  0  0
  8  9  2  0  0  0  0
  8 13  1  0  0  0  0
  9 10  1  0  0  0  0
 10 11  2  0  0  0  0
 10 18  1  0  0  0  0
 11 12  1  0  0  0  0
 12 17  1  0  0  0  0
 12 13  2  0  0  0  0
 13 14  1  0  0  0  0
 14 15  2  0  0  0  0
 14 37  1  0  0  0  0
 15 16  1  0  0  0  0
 15 38  1  0  0  0  0
 16 17  2  0  0  0  0
 16 39  1  0  0  0  0
 17 40  1  0  0  0  0
 18 19  2  0  0  0  0
 18 23  1  0  0  0  0
 19 20  1  0  0  0  0
 19 41  1  0  0  0  0
 20 21  2  0  0  0  0
 20 42  1  0  0  0  0
 21 22  1  0  0  0  0
 21 43  1  0  0  0  0
 22 23  2  0  0  0  0
 22 44  1  0  0  0  0
 23 45  1  0  0  0  0
M  END
$$$$