40905152 40905151
 OpenBabel01161410043D

 21 21  0  0  1  0  0  0  0  0999 V2000
    2.5481    1.4269    0.6666 N   0  0  0  0  0  0  0  0  0  0  0  0
    2.5415    0.0858    0.0947 C   0  0  0  0  0  0  0  0  0  0  0  0
    2.9242   -0.9613    1.1397 C   0  0  3  0  0  0  0  0  0  0  0  0
    1.9511   -1.0621    2.3134 C   0  0  0  0  0  0  0  0  0  0  0  0
    2.3139   -2.3950    2.9556 C   0  0  0  0  0  0  0  0  0  0  0  0
    2.7544   -3.2918    1.7971 C   0  0  3  0  0  0  0  0  0  0  0  0
    2.9114   -2.3856    0.5737 C   0  0  0  0  0  0  0  0  0  0  0  0
    3.9863   -3.9286    2.1051 O   0  0  0  0  0  0  0  0  0  0  0  0
    2.3233    2.1057   -0.0602 H   0  0  0  0  0  0  0  0  0  0  0  0
    3.4857    1.6592    0.9919 H   0  0  0  0  0  0  0  0  0  0  0  0
    3.2451    0.0480   -0.7446 H   0  0  0  0  0  0  0  0  0  0  0  0
    1.5432   -0.1213   -0.3069 H   0  0  0  0  0  0  0  0  0  0  0  0
    3.9307   -0.7452    1.5252 H   0  0  0  0  0  0  0  0  0  0  0  0
    0.9126   -1.0852    1.9610 H   0  0  0  0  0  0  0  0  0  0  0  0
    2.0531   -0.2323    3.0195 H   0  0  0  0  0  0  0  0  0  0  0  0
    3.1213   -2.2600    3.6851 H   0  0  0  0  0  0  0  0  0  0  0  0
    1.4579   -2.8185    3.4912 H   0  0  0  0  0  0  0  0  0  0  0  0
    2.0178   -4.0775    1.5999 H   0  0  0  0  0  0  0  0  0  0  0  0
    3.8154   -2.5966   -0.0049 H   0  0  0  0  0  0  0  0  0  0  0  0
    2.0442   -2.5166   -0.0867 H   0  0  0  0  0  0  0  0  0  0  0  0
    4.6481   -3.2377    2.2791 H   0  0  0  0  0  0  0  0  0  0  0  0
  1  2  1  0  0  0  0
  1  9  1  0  0  0  0
  1 10  1  0  0  0  0
  2  3  1  0  0  0  0
  2 11  1  0  0  0  0
  2 12  1  0  0  0  0
  3  7  1  0  0  0  0
  3  4  1  0  0  0  0
  3 13  1  0  0  0  0
  4  5  1  0  0  0  0
  4 14  1  0  0  0  0
  4 15  1  0  0  0  0
  5  6  1  0  0  0  0
  5 16  1  0  0  0  0
  5 17  1  0  0  0  0
  6  7  1  0  0  0  0
  6  8  1  0  0  0  0
  6 18  1  0  0  0  0
  7 19  1  0  0  0  0
  7 20  1  0  0  0  0
  8 21  1  0  0  0  0
M  END
$$$$