6797494 6797493
 OpenBabel01161409553D

 55 59  0  0  1  0  0  0  0  0999 V2000
    8.7935    2.2260    4.0778 Cl  0  0  0  0  0  0  0  0  0  0  0  0
    8.2357    1.5381    2.6027 C   0  0  0  0  0  0  0  0  0  0  0  0
    9.0492    1.5666    1.4738 C   0  0  0  0  0  0  0  0  0  0  0  0
    8.5969    1.0042    0.2765 C   0  0  0  0  0  0  0  0  0  0  0  0
    7.3288    0.4005    0.1930 C   0  0  0  0  0  0  0  0  0  0  0  0
    6.5219    0.3950    1.3460 C   0  0  0  0  0  0  0  0  0  0  0  0
    6.9727    0.9564    2.5441 C   0  0  0  0  0  0  0  0  0  0  0  0
    6.8276   -0.2041   -1.1132 C   0  0  3  0  0  0  0  0  0  0  0  0
    6.0728    0.8446   -1.9429 C   0  0  0  0  0  0  0  0  0  0  0  0
    5.3980    0.1325   -3.1306 C   0  0  3  0  0  0  0  0  0  0  0  0
    5.4275    0.9807   -4.4288 C   0  0  0  0  0  0  0  0  0  0  0  0
    4.7782    0.2552   -5.6130 C   0  0  0  0  0  0  0  0  0  0  0  0
    4.7038    2.3209   -4.2256 C   0  0  0  0  0  0  0  0  0  0  0  0
    5.9996   -1.2826   -3.2324 C   0  0  3  0  0  0  0  0  0  0  0  0
    5.6576   -2.0878   -1.9801 C   0  0  3  0  0  0  0  0  0  0  0  0
    5.9308   -1.2859   -0.8211 O   0  0  0  0  0  0  0  0  0  0  0  0
    6.6302   -3.2818   -2.0696 C   0  0  0  0  0  0  0  0  0  0  0  0
    7.7768   -2.7720   -2.7814 O   0  0  0  0  0  0  0  0  0  0  0  0
    7.5246   -1.3736   -3.0429 C   0  0  3  0  0  0  0  0  0  0  0  0
    7.9415   -0.6526   -1.8835 O   0  0  0  0  0  0  0  0  0  0  0  0
    8.3461   -0.9834   -4.2606 C   0  0  0  0  0  0  0  0  0  0  0  0
    9.2554    0.0890   -4.2260 C   0  0  0  0  0  0  0  0  0  0  0  0
   10.0185    0.4249   -5.3486 C   0  0  0  0  0  0  0  0  0  0  0  0
    9.8835   -0.3098   -6.5225 C   0  0  0  0  0  0  0  0  0  0  0  0
    8.9938   -1.3778   -6.5834 C   0  0  0  0  0  0  0  0  0  0  0  0
    8.2339   -1.7134   -5.4591 C   0  0  0  0  0  0  0  0  0  0  0  0
   10.8275    0.0983   -7.9016 Cl  0  0  0  0  0  0  0  0  0  0  0  0
    6.0504   -4.4273   -2.9047 C   0  0  0  0  0  0  0  0  0  0  0  0
    7.0948   -3.8103   -0.7130 C   0  0  0  0  0  0  0  0  0  0  0  0
   10.0367    2.0179    1.5172 H   0  0  0  0  0  0  0  0  0  0  0  0
    9.2509    1.0289   -0.5931 H   0  0  0  0  0  0  0  0  0  0  0  0
    5.5331   -0.0602    1.3194 H   0  0  0  0  0  0  0  0  0  0  0  0
    6.3359    0.9311    3.4241 H   0  0  0  0  0  0  0  0  0  0  0  0
    6.7749    1.6123   -2.2925 H   0  0  0  0  0  0  0  0  0  0  0  0
    5.3002    1.3462   -1.3466 H   0  0  0  0  0  0  0  0  0  0  0  0
    4.3366    0.0009   -2.8707 H   0  0  0  0  0  0  0  0  0  0  0  0
    6.4661    1.2035   -4.6982 H   0  0  0  0  0  0  0  0  0  0  0  0
    3.7658   -0.0795   -5.3647 H   0  0  0  0  0  0  0  0  0  0  0  0
    5.3618   -0.6161   -5.9208 H   0  0  0  0  0  0  0  0  0  0  0  0
    4.7099    0.9143   -6.4851 H   0  0  0  0  0  0  0  0  0  0  0  0
    3.6623    2.1651   -3.9245 H   0  0  0  0  0  0  0  0  0  0  0  0
    4.7019    2.9065   -5.1511 H   0  0  0  0  0  0  0  0  0  0  0  0
    5.1908    2.9305   -3.4591 H   0  0  0  0  0  0  0  0  0  0  0  0
    5.6473   -1.8216   -4.1161 H   0  0  0  0  0  0  0  0  0  0  0  0
    4.6104   -2.4017   -1.9288 H   0  0  0  0  0  0  0  0  0  0  0  0
    9.3918    0.6678   -3.3148 H   0  0  0  0  0  0  0  0  0  0  0  0
   10.7221    1.2513   -5.2936 H   0  0  0  0  0  0  0  0  0  0  0  0
    8.8957   -1.9614   -7.4947 H   0  0  0  0  0  0  0  0  0  0  0  0
    7.5644   -2.5697   -5.5167 H   0  0  0  0  0  0  0  0  0  0  0  0
    5.7894   -4.1002   -3.9165 H   0  0  0  0  0  0  0  0  0  0  0  0
    5.1556   -4.8487   -2.4353 H   0  0  0  0  0  0  0  0  0  0  0  0
    6.7876   -5.2291   -3.0275 H   0  0  0  0  0  0  0  0  0  0  0  0
    7.6587   -3.0536   -0.1567 H   0  0  0  0  0  0  0  0  0  0  0  0
    7.7798   -4.6566   -0.8404 H   0  0  0  0  0  0  0  0  0  0  0  0
    6.2484   -4.1393   -0.1016 H   0  0  0  0  0  0  0  0  0  0  0  0
  1  2  1  0  0  0  0
  2  3  2  0  0  0  0
  2  7  1  0  0  0  0
  3  4  1  0  0  0  0
  3 30  1  0  0  0  0
  4  5  2  0  0  0  0
  4 31  1  0  0  0  0
  5  6  1  0  0  0  0
  5  8  1  0  0  0  0
  6  7  2  0  0  0  0
  6 32  1  0  0  0  0
  7 33  1  0  0  0  0
  8  9  1  0  0  0  0
  8 16  1  0  0  0  0
  8 20  1  0  0  0  0
  9 10  1  0  0  0  0
  9 34  1  0  0  0  0
  9 35  1  0  0  0  0
 10 14  1  0  0  0  0
 10 11  1  0  0  0  0
 10 36  1  0  0  0  0
 11 13  1  0  0  0  0
 11 12  1  0  0  0  0
 11 37  1  0  0  0  0
 12 38  1  0  0  0  0
 12 39  1  0  0  0  0
 12 40  1  0  0  0  0
 13 41  1  0  0  0  0
 13 42  1  0  0  0  0
 13 43  1  0  0  0  0
 14 19  1  0  0  0  0
 14 15  1  0  0  0  0
 14 44  1  0  0  0  0
 15 17  1  0  0  0  0
 15 16  1  0  0  0  0
 15 45  1  0  0  0  0
 17 18  1  0  0  0  0
 17 29  1  0  0  0  0
 17 28  1  0  0  0  0
 18 19  1  0  0  0  0
 19 21  1  0  0  0  0
 19 20  1  0  0  0  0
 21 22  2  0  0  0  0
 21 26  1  0  0  0  0
 22 23  1  0  0  0  0
 22 46  1  0  0  0  0
 23 24  2  0  0  0  0
 23 47  1  0  0  0  0
 24 25  1  0  0  0  0
 24 27  1  0  0  0  0
 25 26  2  0  0  0  0
 25 48  1  0  0  0  0
 26 49  1  0  0  0  0
 28 50  1  0  0  0  0
 28 51  1  0  0  0  0
 28 52  1  0  0  0  0
 29 53  1  0  0  0  0
 29 54  1  0  0  0  0
 29 55  1  0  0  0  0
M  END
$$$$