969697 969696
 OpenBabel01161410153D

 21 22  0  0  0  0  0  0  0  0999 V2000
    7.6775    4.9349    4.7595 C   0  0  0  0  0  0  0  0  0  0  0  0
    6.7677    5.2772    3.8041 C   0  0  0  0  0  0  0  0  0  0  0  0
    7.3370    5.6680    2.4645 C   0  0  0  0  0  0  0  0  0  0  0  0
    7.9294    4.6224    1.8209 C   0  0  0  0  0  0  0  0  0  0  0  0
    9.2293    4.1244    2.4399 C   0  0  0  0  0  0  0  0  0  0  0  0
    8.8641    3.1572    3.5705 C   0  0  0  0  0  0  0  0  0  0  0  0
    8.1780    3.5491    4.6724 C   0  0  0  0  0  0  0  0  0  0  0  0
    8.8445    1.7775    3.1363 C   0  0  0  0  0  0  0  0  0  0  0  0
    8.1187    1.4051    2.0657 C   0  0  0  0  0  0  0  0  0  0  0  0
    7.2057    2.2387    1.2843 C   0  0  0  0  0  0  0  0  0  0  0  0
    7.1052    3.5815    1.1865 C   0  0  0  0  0  0  0  0  0  0  0  0
    8.5195    5.6113    4.9308 H   0  0  0  0  0  0  0  0  0  0  0  0
    5.9279    4.5933    3.6429 H   0  0  0  0  0  0  0  0  0  0  0  0
    7.9859    6.5284    2.6740 H   0  0  0  0  0  0  0  0  0  0  0  0
    9.8308    4.9520    2.8389 H   0  0  0  0  0  0  0  0  0  0  0  0
    9.8652    3.6573    1.6760 H   0  0  0  0  0  0  0  0  0  0  0  0
    7.7754    2.8364    5.3872 H   0  0  0  0  0  0  0  0  0  0  0  0
    9.4496    1.0613    3.6829 H   0  0  0  0  0  0  0  0  0  0  0  0
    8.1445    0.3578    1.7692 H   0  0  0  0  0  0  0  0  0  0  0  0
    6.4754    1.6535    0.7240 H   0  0  0  0  0  0  0  0  0  0  0  0
    6.2887    3.9787    0.5830 H   0  0  0  0  0  0  0  0  0  0  0  0
  1  2  2  0  0  0  0
  1  7  1  0  0  0  0
  1 12  1  0  0  0  0
  2  3  1  0  0  0  0
  2 13  1  0  0  0  0
  3  4  2  0  0  0  0
  3 14  1  0  0  0  0
  4  5  1  0  0  0  0
  4 11  1  0  0  0  0
  5  6  1  0  0  0  0
  5 15  1  0  0  0  0
  5 16  1  0  0  0  0
  6  8  1  0  0  0  0
  6  7  2  0  0  0  0
  7 17  1  0  0  0  0
  8  9  2  0  0  0  0
  8 18  1  0  0  0  0
  9 10  1  0  0  0  0
  9 19  1  0  0  0  0
 10 11  2  0  0  0  0
 10 20  1  0  0  0  0
 11 21  1  0  0  0  0
M  END
$$$$