839251 487311
 OpenBabel01161410463D

 18 17  0  0  0  0  0  0  0  0999 V2000
    1.0122   -0.0059   -0.0186 N   0  0  0  0  0  0  0  0  0  0  0  0
    2.4500    0.0016   -0.1264 N   0  0  0  0  0  0  0  0  0  0  0  0
    2.9090    0.5826   -1.4082 C   0  0  0  0  0  0  0  0  0  0  0  0
    2.4672   -0.2719   -2.6089 C   0  0  0  0  0  0  0  0  0  0  0  0
    2.4259    2.0336   -1.5761 C   0  0  0  0  0  0  0  0  0  0  0  0
    4.4487    0.5883   -1.3542 C   0  0  0  0  0  0  0  0  0  0  0  0
    0.7181   -0.0824    0.9588 H   0  0  0  0  0  0  0  0  0  0  0  0
    0.5850   -0.7947   -0.5101 H   0  0  0  0  0  0  0  0  0  0  0  0
    2.8604   -0.9292   -0.0022 H   0  0  0  0  0  0  0  0  0  0  0  0
    2.7906   -1.3134   -2.4979 H   0  0  0  0  0  0  0  0  0  0  0  0
    2.8998    0.1096   -3.5413 H   0  0  0  0  0  0  0  0  0  0  0  0
    1.3779   -0.2702   -2.7333 H   0  0  0  0  0  0  0  0  0  0  0  0
    2.7175    2.6520   -0.7187 H   0  0  0  0  0  0  0  0  0  0  0  0
    1.3364    2.0942   -1.6791 H   0  0  0  0  0  0  0  0  0  0  0  0
    2.8608    2.4898   -2.4733 H   0  0  0  0  0  0  0  0  0  0  0  0
    4.8174    1.1840   -0.5106 H   0  0  0  0  0  0  0  0  0  0  0  0
    4.8746    1.0164   -2.2700 H   0  0  0  0  0  0  0  0  0  0  0  0
    4.8518   -0.4259   -1.2484 H   0  0  0  0  0  0  0  0  0  0  0  0
  1  2  1  0  0  0  0
  1  7  1  0  0  0  0
  1  8  1  0  0  0  0
  2  3  1  0  0  0  0
  2  9  1  0  0  0  0
  3  6  1  0  0  0  0
  3  5  1  0  0  0  0
  3  4  1  0  0  0  0
  4 10  1  0  0  0  0
  4 11  1  0  0  0  0
  4 12  1  0  0  0  0
  5 13  1  0  0  0  0
  5 14  1  0  0  0  0
  5 15  1  0  0  0  0
  6 16  1  0  0  0  0
  6 17  1  0  0  0  0
  6 18  1  0  0  0  0
M  END
$$$$