1064776 1064775
 OpenBabel01161410483D

 27 26  0  0  1  0  0  0  0  0999 V2000
    4.9647    1.1080   -1.8540 S   0  0  0  0  0  0  0  0  0  0  0  0
    3.7884   -0.1218   -1.2019 C   0  0  0  0  0  0  0  0  0  0  0  0
    2.3221    0.0449   -1.6696 C   0  0  3  0  0  0  0  0  0  0  0  0
    1.7255    1.3815   -1.1589 C   0  0  0  0  0  0  0  0  0  0  0  0
    0.1787    1.5232   -1.0413 C   0  0  0  0  0  0  0  0  0  0  0  0
   -0.4111    0.4588   -0.1008 C   0  0  0  0  0  0  0  0  0  0  0  0
   -0.1138    2.9145   -0.4355 C   0  0  0  0  0  0  0  0  0  0  0  0
   -0.5315    1.4458   -2.3999 C   0  0  0  0  0  0  0  0  0  0  0  0
    2.2175   -0.1235   -3.1897 C   0  0  0  0  0  0  0  0  0  0  0  0
    4.9088    0.7163   -3.1356 H   0  0  0  0  0  0  0  0  0  0  0  0
    3.8330   -0.0718   -0.1084 H   0  0  0  0  0  0  0  0  0  0  0  0
    4.1570   -1.1131   -1.4878 H   0  0  0  0  0  0  0  0  0  0  0  0
    1.7760   -0.7865   -1.2093 H   0  0  0  0  0  0  0  0  0  0  0  0
    2.1031    2.2018   -1.7841 H   0  0  0  0  0  0  0  0  0  0  0  0
    2.1361    1.5640   -0.1550 H   0  0  0  0  0  0  0  0  0  0  0  0
   -0.3130   -0.5497   -0.5143 H   0  0  0  0  0  0  0  0  0  0  0  0
   -1.4794    0.6336    0.0691 H   0  0  0  0  0  0  0  0  0  0  0  0
    0.0864    0.4741    0.8751 H   0  0  0  0  0  0  0  0  0  0  0  0
    0.2710    3.7140   -1.0789 H   0  0  0  0  0  0  0  0  0  0  0  0
    0.3518    3.0244    0.5505 H   0  0  0  0  0  0  0  0  0  0  0  0
   -1.1905    3.0776   -0.3110 H   0  0  0  0  0  0  0  0  0  0  0  0
   -0.0310    2.0707   -3.1475 H   0  0  0  0  0  0  0  0  0  0  0  0
   -1.5689    1.7920   -2.3224 H   0  0  0  0  0  0  0  0  0  0  0  0
   -0.5787    0.4211   -2.7763 H   0  0  0  0  0  0  0  0  0  0  0  0
    2.4801    0.7962   -3.7218 H   0  0  0  0  0  0  0  0  0  0  0  0
    1.2080   -0.4093   -3.4903 H   0  0  0  0  0  0  0  0  0  0  0  0
    2.8787   -0.9220   -3.5436 H   0  0  0  0  0  0  0  0  0  0  0  0
  1  2  1  0  0  0  0
  1 10  1  0  0  0  0
  2  3  1  0  0  0  0
  2 11  1  0  0  0  0
  2 12  1  0  0  0  0
  3  9  1  0  0  0  0
  3  4  1  0  0  0  0
  3 13  1  0  0  0  0
  4  5  1  0  0  0  0
  4 14  1  0  0  0  0
  4 15  1  0  0  0  0
  5  8  1  0  0  0  0
  5  7  1  0  0  0  0
  5  6  1  0  0  0  0
  6 16  1  0  0  0  0
  6 17  1  0  0  0  0
  6 18  1  0  0  0  0
  7 19  1  0  0  0  0
  7 20  1  0  0  0  0
  7 21  1  0  0  0  0
  8 22  1  0  0  0  0
  8 23  1  0  0  0  0
  8 24  1  0  0  0  0
  9 25  1  0  0  0  0
  9 26  1  0  0  0  0
  9 27  1  0  0  0  0
M  END
$$$$