36781005 36781004
 OpenBabel01161410523D

 43 44  0  0  1  0  0  0  0  0999 V2000
    1.1442    3.0813   -2.1496 C   0  0  0  0  0  0  0  0  0  0  0  0
    2.4131    3.7325   -1.8239 N   0  0  0  0  0  0  0  0  0  0  0  0
    3.5511    3.1149   -2.5230 C   0  0  3  0  0  0  0  0  0  0  0  0
    4.8756    3.8236   -2.1844 C   0  0  0  0  0  0  0  0  0  0  0  0
    5.9467    2.7331   -2.0855 C   0  0  0  0  0  0  0  0  0  0  0  0
    5.2772    1.4219   -2.5167 C   0  0  3  0  0  0  0  0  0  0  0  0
    3.8101    1.6537   -2.1380 C   0  0  0  0  0  0  0  0  0  0  0  0
    5.4575    1.0319   -3.9739 C   0  0  0  0  0  0  0  0  0  0  0  0
    5.7043    1.9546   -4.9941 C   0  0  0  0  0  0  0  0  0  0  0  0
    5.8901    1.5346   -6.3166 C   0  0  0  0  0  0  0  0  0  0  0  0
    5.8375    0.1773   -6.6767 C   0  0  0  0  0  0  0  0  0  0  0  0
    5.5659   -0.7414   -5.6522 C   0  0  0  0  0  0  0  0  0  0  0  0
    5.3764   -0.3213   -4.3281 C   0  0  0  0  0  0  0  0  0  0  0  0
    6.0842   -0.2431   -8.1353 C   0  0  0  0  0  0  0  0  0  0  0  0
    5.0310    0.4133   -9.0532 C   0  0  0  0  0  0  0  0  0  0  0  0
    7.4935    0.2146   -8.5725 C   0  0  0  0  0  0  0  0  0  0  0  0
    6.0085   -1.7686   -8.3676 C   0  0  0  0  0  0  0  0  0  0  0  0
    2.2939    5.0722   -2.3885 O   0  0  0  0  0  0  0  0  0  0  0  0
    0.3148    3.6355   -1.6962 H   0  0  0  0  0  0  0  0  0  0  0  0
    1.1077    2.0699   -1.7333 H   0  0  0  0  0  0  0  0  0  0  0  0
    0.9685    3.0258   -3.2292 H   0  0  0  0  0  0  0  0  0  0  0  0
    3.3907    3.1714   -3.6089 H   0  0  0  0  0  0  0  0  0  0  0  0
    4.8245    4.3668   -1.2329 H   0  0  0  0  0  0  0  0  0  0  0  0
    5.1256    4.5602   -2.9567 H   0  0  0  0  0  0  0  0  0  0  0  0
    6.8500    2.9812   -2.6515 H   0  0  0  0  0  0  0  0  0  0  0  0
    6.2511    2.6482   -1.0340 H   0  0  0  0  0  0  0  0  0  0  0  0
    5.6945    0.6080   -1.9092 H   0  0  0  0  0  0  0  0  0  0  0  0
    3.1216    0.9635   -2.6373 H   0  0  0  0  0  0  0  0  0  0  0  0
    3.6908    1.5211   -1.0542 H   0  0  0  0  0  0  0  0  0  0  0  0
    5.7639    3.0195   -4.7887 H   0  0  0  0  0  0  0  0  0  0  0  0
    6.0872    2.2977   -7.0670 H   0  0  0  0  0  0  0  0  0  0  0  0
    5.5017   -1.8075   -5.8500 H   0  0  0  0  0  0  0  0  0  0  0  0
    5.1754   -1.0734   -3.5670 H   0  0  0  0  0  0  0  0  0  0  0  0
    4.0150    0.1299   -8.7540 H   0  0  0  0  0  0  0  0  0  0  0  0
    5.1696    0.1059  -10.0965 H   0  0  0  0  0  0  0  0  0  0  0  0
    5.0866    1.5074   -9.0325 H   0  0  0  0  0  0  0  0  0  0  0  0
    8.2661   -0.2099   -7.9202 H   0  0  0  0  0  0  0  0  0  0  0  0
    7.6031    1.3044   -8.5451 H   0  0  0  0  0  0  0  0  0  0  0  0
    7.7121   -0.1028   -9.5988 H   0  0  0  0  0  0  0  0  0  0  0  0
    6.7564   -2.3050   -7.7718 H   0  0  0  0  0  0  0  0  0  0  0  0
    6.1959   -2.0176   -9.4192 H   0  0  0  0  0  0  0  0  0  0  0  0
    5.0195   -2.1670   -8.1134 H   0  0  0  0  0  0  0  0  0  0  0  0
    2.4054    5.6236   -1.5914 H   0  0  0  0  0  0  0  0  0  0  0  0
  1  2  1  0  0  0  0
  1 19  1  0  0  0  0
  1 20  1  0  0  0  0
  1 21  1  0  0  0  0
  2 18  1  0  0  0  0
  2  3  1  0  0  0  0
  3  7  1  0  0  0  0
  3  4  1  0  0  0  0
  3 22  1  0  0  0  0
  4  5  1  0  0  0  0
  4 23  1  0  0  0  0
  4 24  1  0  0  0  0
  5  6  1  0  0  0  0
  5 25  1  0  0  0  0
  5 26  1  0  0  0  0
  6  7  1  0  0  0  0
  6  8  1  0  0  0  0
  6 27  1  0  0  0  0
  7 28  1  0  0  0  0
  7 29  1  0  0  0  0
  8  9  2  0  0  0  0
  8 13  1  0  0  0  0
  9 10  1  0  0  0  0
  9 30  1  0  0  0  0
 10 11  2  0  0  0  0
 10 31  1  0  0  0  0
 11 12  1  0  0  0  0
 11 14  1  0  0  0  0
 12 13  2  0  0  0  0
 12 32  1  0  0  0  0
 13 33  1  0  0  0  0
 14 17  1  0  0  0  0
 14 16  1  0  0  0  0
 14 15  1  0  0  0  0
 15 34  1  0  0  0  0
 15 35  1  0  0  0  0
 15 36  1  0  0  0  0
 16 37  1  0  0  0  0
 16 38  1  0  0  0  0
 16 39  1  0  0  0  0
 17 40  1  0  0  0  0
 17 41  1  0  0  0  0
 17 42  1  0  0  0  0
 18 43  1  0  0  0  0
M  END
$$$$