31628056 31628055
 OpenBabel01161410153D

 17 18  0  0  0  0  0  0  0  0999 V2000
    0.8902    0.3282   -0.6781 O   0  0  0  0  0  0  0  0  0  0  0  0
    2.1685    0.1734   -0.3475 C   0  0  0  0  0  0  0  0  0  0  0  0
    2.9417    0.9482    0.4908 C   0  0  0  0  0  0  0  0  0  0  0  0
    4.2793    0.4631    0.5993 C   0  0  0  0  0  0  0  0  0  0  0  0
    4.4772   -0.6667   -0.1624 C   0  0  0  0  0  0  0  0  0  0  0  0
    3.0647   -1.1283   -0.9928 S   0  0  0  0  0  0  0  0  0  0  0  0
    5.8317   -1.3775   -0.2139 C   0  0  0  0  0  0  0  0  0  0  0  0
    5.8788   -2.8854   -0.3454 C   0  0  0  0  0  0  0  0  0  0  0  0
    6.2810   -2.0351   -1.5018 C   0  0  0  0  0  0  0  0  0  0  0  0
    0.5645    1.1158   -0.2124 H   0  0  0  0  0  0  0  0  0  0  0  0
    2.5746    1.8252    1.0078 H   0  0  0  0  0  0  0  0  0  0  0  0
    5.0485    0.9250    1.2062 H   0  0  0  0  0  0  0  0  0  0  0  0
    6.6087   -0.9202    0.3925 H   0  0  0  0  0  0  0  0  0  0  0  0
    4.9526   -3.4432   -0.4186 H   0  0  0  0  0  0  0  0  0  0  0  0
    6.6573   -3.4116    0.1952 H   0  0  0  0  0  0  0  0  0  0  0  0
    7.3346   -1.9801   -1.7517 H   0  0  0  0  0  0  0  0  0  0  0  0
    5.6308   -2.0096   -2.3685 H   0  0  0  0  0  0  0  0  0  0  0  0
  1  2  1  0  0  0  0
  1 10  1  0  0  0  0
  2  3  2  0  0  0  0
  2  6  1  0  0  0  0
  3  4  1  0  0  0  0
  3 11  1  0  0  0  0
  4  5  2  0  0  0  0
  4 12  1  0  0  0  0
  5  6  1  0  0  0  0
  5  7  1  0  0  0  0
  7  9  1  0  0  0  0
  7  8  1  0  0  0  0
  7 13  1  0  0  0  0
  8  9  1  0  0  0  0
  8 14  1  0  0  0  0
  8 15  1  0  0  0  0
  9 16  1  0  0  0  0
  9 17  1  0  0  0  0
M  END
$$$$