922565 922564
 OpenBabel01161410193D

 55 54  0  0  0  0  0  0  0  0999 V2000
   -2.9934    5.2830  -11.2187 C   0  0  0  0  0  0  0  0  0  0  0  0
   -1.5136    5.2651  -10.0311 Si  0  0  0  0  0  0  0  0  0  0  0  0
   -1.9165    4.4080   -8.5572 N   0  0  0  0  0  0  0  0  0  0  0  0
   -0.4891    3.7877   -7.7242 Si  0  0  0  0  0  0  0  0  0  0  0  0
    0.4760    2.4890   -8.6769 C   0  0  0  0  0  0  0  0  0  0  0  0
    0.6567    5.1749   -7.1664 C   0  0  0  0  0  0  0  0  0  0  0  0
   -1.0175    2.8796   -6.1227 C   0  0  0  0  0  0  0  0  0  0  0  0
   -3.1537    4.9601   -7.5419 S   0  0  0  0  0  0  0  0  0  0  0  0
   -4.6654    4.8044   -8.3000 N   0  0  0  0  0  0  0  0  0  0  0  0
   -5.7608    6.1476   -8.0208 Si  0  0  0  0  0  0  0  0  0  0  0  0
   -4.8243    7.7567   -8.4851 C   0  0  0  0  0  0  0  0  0  0  0  0
   -7.3265    6.2608   -9.0359 C   0  0  0  0  0  0  0  0  0  0  0  0
   -6.1837    6.2848   -6.1913 C   0  0  0  0  0  0  0  0  0  0  0  0
   -5.4238    3.2369   -8.4233 Si  0  0  0  0  0  0  0  0  0  0  0  0
   -4.4108    2.1529   -9.6135 C   0  0  0  0  0  0  0  0  0  0  0  0
   -5.4383    2.3657   -6.7501 C   0  0  0  0  0  0  0  0  0  0  0  0
   -7.1688    3.1210   -9.1098 C   0  0  0  0  0  0  0  0  0  0  0  0
   -0.1314    4.5373  -11.0832 C   0  0  0  0  0  0  0  0  0  0  0  0
   -1.0766    7.0607   -9.6623 C   0  0  0  0  0  0  0  0  0  0  0  0
   -2.7452    5.8826  -12.0998 H   0  0  0  0  0  0  0  0  0  0  0  0
   -3.8838    5.7181  -10.7657 H   0  0  0  0  0  0  0  0  0  0  0  0
   -3.2211    4.2697  -11.5575 H   0  0  0  0  0  0  0  0  0  0  0  0
    0.9517    1.7914   -7.9797 H   0  0  0  0  0  0  0  0  0  0  0  0
    1.2775    2.9346   -9.2715 H   0  0  0  0  0  0  0  0  0  0  0  0
   -0.1766    1.9086   -9.3334 H   0  0  0  0  0  0  0  0  0  0  0  0
    1.3643    4.8036   -6.4196 H   0  0  0  0  0  0  0  0  0  0  0  0
    0.0885    5.9919   -6.7145 H   0  0  0  0  0  0  0  0  0  0  0  0
    1.2360    5.5718   -8.0033 H   0  0  0  0  0  0  0  0  0  0  0  0
   -1.5402    3.5515   -5.4357 H   0  0  0  0  0  0  0  0  0  0  0  0
   -0.1255    2.4986   -5.6105 H   0  0  0  0  0  0  0  0  0  0  0  0
   -1.6660    2.0321   -6.3656 H   0  0  0  0  0  0  0  0  0  0  0  0
   -3.9487    7.9012   -7.8445 H   0  0  0  0  0  0  0  0  0  0  0  0
   -5.4887    8.6169   -8.3565 H   0  0  0  0  0  0  0  0  0  0  0  0
   -4.5060    7.7170   -9.5315 H   0  0  0  0  0  0  0  0  0  0  0  0
   -8.1319    5.6530   -8.6188 H   0  0  0  0  0  0  0  0  0  0  0  0
   -7.1567    5.9800  -10.0783 H   0  0  0  0  0  0  0  0  0  0  0  0
   -7.6907    7.2935   -9.0326 H   0  0  0  0  0  0  0  0  0  0  0  0
   -6.8543    7.1329   -6.0235 H   0  0  0  0  0  0  0  0  0  0  0  0
   -5.2818    6.4470   -5.5923 H   0  0  0  0  0  0  0  0  0  0  0  0
   -6.6815    5.3816   -5.8307 H   0  0  0  0  0  0  0  0  0  0  0  0
   -3.3755    2.0540   -9.2843 H   0  0  0  0  0  0  0  0  0  0  0  0
   -4.4321    2.5775  -10.6188 H   0  0  0  0  0  0  0  0  0  0  0  0
   -4.8499    1.1516   -9.6621 H   0  0  0  0  0  0  0  0  0  0  0  0
   -6.0348    2.9219   -6.0235 H   0  0  0  0  0  0  0  0  0  0  0  0
   -4.4230    2.2517   -6.3569 H   0  0  0  0  0  0  0  0  0  0  0  0
   -5.8736    1.3653   -6.8553 H   0  0  0  0  0  0  0  0  0  0  0  0
   -7.4166    2.0720   -9.3001 H   0  0  0  0  0  0  0  0  0  0  0  0
   -7.2686    3.6501  -10.0606 H   0  0  0  0  0  0  0  0  0  0  0  0
   -7.9082    3.4928   -8.3964 H   0  0  0  0  0  0  0  0  0  0  0  0
    0.8486    4.6889  -10.6251 H   0  0  0  0  0  0  0  0  0  0  0  0
   -0.1107    5.0374  -12.0568 H   0  0  0  0  0  0  0  0  0  0  0  0
   -0.2909    3.4724  -11.2679 H   0  0  0  0  0  0  0  0  0  0  0  0
   -1.8418    7.5377   -9.0457 H   0  0  0  0  0  0  0  0  0  0  0  0
   -0.9973    7.6249  -10.5972 H   0  0  0  0  0  0  0  0  0  0  0  0
   -0.1185    7.1417   -9.1440 H   0  0  0  0  0  0  0  0  0  0  0  0
  1  2  1  0  0  0  0
  1 20  1  0  0  0  0
  1 21  1  0  0  0  0
  1 22  1  0  0  0  0
  2 19  1  0  0  0  0
  2 18  1  0  0  0  0
  2  3  1  0  0  0  0
  3  8  1  0  0  0  0
  3  4  1  0  0  0  0
  4  7  1  0  0  0  0
  4  6  1  0  0  0  0
  4  5  1  0  0  0  0
  5 23  1  0  0  0  0
  5 24  1  0  0  0  0
  5 25  1  0  0  0  0
  6 26  1  0  0  0  0
  6 27  1  0  0  0  0
  6 28  1  0  0  0  0
  7 29  1  0  0  0  0
  7 30  1  0  0  0  0
  7 31  1  0  0  0  0
  8  9  1  0  0  0  0
  9 14  1  0  0  0  0
  9 10  1  0  0  0  0
 10 13  1  0  0  0  0
 10 12  1  0  0  0  0
 10 11  1  0  0  0  0
 11 32  1  0  0  0  0
 11 33  1  0  0  0  0
 11 34  1  0  0  0  0
 12 35  1  0  0  0  0
 12 36  1  0  0  0  0
 12 37  1  0  0  0  0
 13 38  1  0  0  0  0
 13 39  1  0  0  0  0
 13 40  1  0  0  0  0
 14 17  1  0  0  0  0
 14 16  1  0  0  0  0
 14 15  1  0  0  0  0
 15 41  1  0  0  0  0
 15 42  1  0  0  0  0
 15 43  1  0  0  0  0
 16 44  1  0  0  0  0
 16 45  1  0  0  0  0
 16 46  1  0  0  0  0
 17 47  1  0  0  0  0
 17 48  1  0  0  0  0
 17 49  1  0  0  0  0
 18 50  1  0  0  0  0
 18 51  1  0  0  0  0
 18 52  1  0  0  0  0
 19 53  1  0  0  0  0
 19 54  1  0  0  0  0
 19 55  1  0  0  0  0
M  END
$$$$