882046 882045
 OpenBabel01161410403D

 14 14  0  0  0  0  0  0  0  0999 V2000
    0.9622   -0.0973   -0.0501 P   0  0  0  0  0  0  0  0  0  0  0  0
    2.7771   -0.0627   -0.0960 C   0  0  0  0  0  0  0  0  0  0  0  0
    3.4709    1.1533   -0.1378 C   0  0  0  0  0  0  0  0  0  0  0  0
    4.8681    1.1723   -0.1710 C   0  0  0  0  0  0  0  0  0  0  0  0
    5.5832   -0.0228   -0.1669 C   0  0  0  0  0  0  0  0  0  0  0  0
    4.9033   -1.2389   -0.1294 C   0  0  0  0  0  0  0  0  0  0  0  0
    3.5064   -1.2586   -0.0943 C   0  0  0  0  0  0  0  0  0  0  0  0
    0.7339    1.1977    0.4722 H   0  0  0  0  0  0  0  0  0  0  0  0
    0.8114   -0.7823    1.1782 H   0  0  0  0  0  0  0  0  0  0  0  0
    2.9350    2.0994   -0.1465 H   0  0  0  0  0  0  0  0  0  0  0  0
    5.3966    2.1219   -0.2026 H   0  0  0  0  0  0  0  0  0  0  0  0
    6.6696   -0.0077   -0.1950 H   0  0  0  0  0  0  0  0  0  0  0  0
    5.4588   -2.1728   -0.1302 H   0  0  0  0  0  0  0  0  0  0  0  0
    2.9957   -2.2191   -0.0695 H   0  0  0  0  0  0  0  0  0  0  0  0
  1  2  1  0  0  0  0
  1  8  1  0  0  0  0
  1  9  1  0  0  0  0
  2  3  2  0  0  0  0
  2  7  1  0  0  0  0
  3  4  1  0  0  0  0
  3 10  1  0  0  0  0
  4  5  2  0  0  0  0
  4 11  1  0  0  0  0
  5  6  1  0  0  0  0
  5 12  1  0  0  0  0
  6  7  2  0  0  0  0
  6 13  1  0  0  0  0
  7 14  1  0  0  0  0
M  END
$$$$