28204248 28204247
 OpenBabel01161410513D

 65 68  0  0  1  0  0  0  0  0999 V2000
    1.7915   -5.6783   -7.4656 C   0  0  0  0  0  0  0  0  0  0  0  0
    2.5822   -4.8810   -6.0505 S   0  0  0  0  0  0  0  0  0  0  0  0
    1.3246   -5.2318   -4.7662 C   0  0  1  0  0  0  0  0  0  0  0  0
    0.4707   -4.6072   -5.0435 H   0  0  0  0  0  0  0  0  0  0  0  0
    0.8617   -6.5775   -4.8809 O   0  0  0  0  0  0  0  0  0  0  0  0
    0.0330   -6.9276   -3.7756 C   0  0  1  0  0  0  0  0  0  0  0  0
   -0.6482   -6.0889   -3.5734 H   0  0  0  0  0  0  0  0  0  0  0  0
   -0.8382   -8.1117   -4.1714 C   0  0  0  0  0  0  0  0  0  0  0  0
    0.9252   -7.1606   -2.5426 C   0  0  2  0  0  0  0  0  0  0  0  0
    0.2441   -7.0165   -1.6921 H   0  0  0  0  0  0  0  0  0  0  0  0
    2.0312   -6.0598   -2.3932 C   0  0  2  0  0  0  0  0  0  0  0  0
    1.9410   -5.7145   -1.3538 H   0  0  0  0  0  0  0  0  0  0  0  0
    1.8190   -4.8369   -3.3337 C   0  0  2  0  0  0  0  0  0  0  0  0
    2.7564   -4.2827   -3.3997 H   0  0  0  0  0  0  0  0  0  0  0  0
    0.8734   -3.9585   -2.6658 O   0  0  0  0  0  0  0  0  0  0  0  0
    0.7769   -2.6364   -3.2154 C   0  0  0  0  0  0  0  0  0  0  0  0
    2.0320   -1.7998   -3.1296 C   0  0  0  0  0  0  0  0  0  0  0  0
    2.7024   -1.6250   -1.9122 C   0  0  0  0  0  0  0  0  0  0  0  0
    3.8288   -0.8004   -1.8381 C   0  0  0  0  0  0  0  0  0  0  0  0
    4.2971   -0.1468   -2.9761 C   0  0  0  0  0  0  0  0  0  0  0  0
    3.6447   -0.3197   -4.1940 C   0  0  0  0  0  0  0  0  0  0  0  0
    2.5157   -1.1390   -4.2694 C   0  0  0  0  0  0  0  0  0  0  0  0
    3.3436   -6.6095   -2.5649 O   0  0  0  0  0  0  0  0  0  0  0  0
    4.3562   -6.0643   -1.7128 C   0  0  0  0  0  0  0  0  0  0  0  0
    5.1924   -5.0403   -2.4340 C   0  0  0  0  0  0  0  0  0  0  0  0
    5.7943   -3.9901   -1.7295 C   0  0  0  0  0  0  0  0  0  0  0  0
    6.5248   -3.0129   -2.4087 C   0  0  0  0  0  0  0  0  0  0  0  0
    6.6546   -3.0711   -3.7953 C   0  0  0  0  0  0  0  0  0  0  0  0
    6.0974   -4.1338   -4.4994 C   0  0  0  0  0  0  0  0  0  0  0  0
    5.3989   -5.1280   -3.8173 C   0  0  0  0  0  0  0  0  0  0  0  0
    1.3614   -8.5260   -2.3665 O   0  0  0  0  0  0  0  0  0  0  0  0
    2.3037   -9.0290   -3.3186 C   0  0  0  0  0  0  0  0  0  0  0  0
    2.2660  -10.5416   -3.4167 C   0  0  0  0  0  0  0  0  0  0  0  0
    2.7490  -11.1635   -4.5805 C   0  0  0  0  0  0  0  0  0  0  0  0
    2.8383  -12.5545   -4.6648 C   0  0  0  0  0  0  0  0  0  0  0  0
    2.4524  -13.3428   -3.5836 C   0  0  0  0  0  0  0  0  0  0  0  0
    1.9720  -12.7401   -2.4219 C   0  0  0  0  0  0  0  0  0  0  0  0
    1.8848  -11.3477   -2.3361 C   0  0  0  0  0  0  0  0  0  0  0  0
    2.3680   -5.4514   -8.3667 H   0  0  0  0  0  0  0  0  0  0  0  0
    1.7750   -6.7635   -7.3373 H   0  0  0  0  0  0  0  0  0  0  0  0
    0.7746   -5.3021   -7.6020 H   0  0  0  0  0  0  0  0  0  0  0  0
   -0.2476   -8.9679   -4.5079 H   0  0  0  0  0  0  0  0  0  0  0  0
   -1.4756   -7.8343   -5.0194 H   0  0  0  0  0  0  0  0  0  0  0  0
   -1.4833   -8.4231   -3.3446 H   0  0  0  0  0  0  0  0  0  0  0  0
   -0.0038   -2.1178   -2.6466 H   0  0  0  0  0  0  0  0  0  0  0  0
    0.4094   -2.6858   -4.2448 H   0  0  0  0  0  0  0  0  0  0  0  0
    2.3515   -2.1334   -1.0182 H   0  0  0  0  0  0  0  0  0  0  0  0
    4.3485   -0.6776   -0.8919 H   0  0  0  0  0  0  0  0  0  0  0  0
    5.1800    0.4849   -2.9187 H   0  0  0  0  0  0  0  0  0  0  0  0
    4.0135    0.1805   -5.0853 H   0  0  0  0  0  0  0  0  0  0  0  0
    2.0195   -1.2560   -5.2306 H   0  0  0  0  0  0  0  0  0  0  0  0
    5.0124   -6.8917   -1.4211 H   0  0  0  0  0  0  0  0  0  0  0  0
    3.9266   -5.6510   -0.7924 H   0  0  0  0  0  0  0  0  0  0  0  0
    5.6805   -3.9123   -0.6508 H   0  0  0  0  0  0  0  0  0  0  0  0
    6.9679   -2.1867   -1.8597 H   0  0  0  0  0  0  0  0  0  0  0  0
    7.1810   -2.2853   -4.3287 H   0  0  0  0  0  0  0  0  0  0  0  0
    6.1859   -4.1842   -5.5816 H   0  0  0  0  0  0  0  0  0  0  0  0
    4.9694   -5.9544   -4.3801 H   0  0  0  0  0  0  0  0  0  0  0  0
    3.3181   -8.7902   -2.9924 H   0  0  0  0  0  0  0  0  0  0  0  0
    2.1295   -8.6034   -4.3098 H   0  0  0  0  0  0  0  0  0  0  0  0
    3.0779  -10.5606   -5.4248 H   0  0  0  0  0  0  0  0  0  0  0  0
    3.2235  -13.0200   -5.5680 H   0  0  0  0  0  0  0  0  0  0  0  0
    2.5329  -14.4250   -3.6429 H   0  0  0  0  0  0  0  0  0  0  0  0
    1.6810  -13.3533   -1.5732 H   0  0  0  0  0  0  0  0  0  0  0  0
    1.5321  -10.8907   -1.4142 H   0  0  0  0  0  0  0  0  0  0  0  0
  1  2  1  0  0  0  0
  1 39  1  0  0  0  0
  1 40  1  0  0  0  0
  1 41  1  0  0  0  0
  2  3  1  0  0  0  0
  3 13  1  0  0  0  0
  3  5  1  0  0  0  0
  3  4  1  6  0  0  0
  5  6  1  0  0  0  0
  6  9  1  0  0  0  0
  6  7  1  1  0  0  0
  6  8  1  0  0  0  0
  8 42  1  0  0  0  0
  8 43  1  0  0  0  0
  8 44  1  0  0  0  0
  9 11  1  0  0  0  0
  9 10  1  1  0  0  0
  9 31  1  0  0  0  0
 11 13  1  0  0  0  0
 11 12  1  1  0  0  0
 11 23  1  0  0  0  0
 13 15  1  0  0  0  0
 13 14  1  6  0  0  0
 15 16  1  0  0  0  0
 16 17  1  0  0  0  0
 16 45  1  0  0  0  0
 16 46  1  0  0  0  0
 17 18  2  0  0  0  0
 17 22  1  0  0  0  0
 18 19  1  0  0  0  0
 18 47  1  0  0  0  0
 19 20  2  0  0  0  0
 19 48  1  0  0  0  0
 20 21  1  0  0  0  0
 20 49  1  0  0  0  0
 21 22  2  0  0  0  0
 21 50  1  0  0  0  0
 22 51  1  0  0  0  0
 23 24  1  0  0  0  0
 24 25  1  0  0  0  0
 24 52  1  0  0  0  0
 24 53  1  0  0  0  0
 25 26  2  0  0  0  0
 25 30  1  0  0  0  0
 26 27  1  0  0  0  0
 26 54  1  0  0  0  0
 27 28  2  0  0  0  0
 27 55  1  0  0  0  0
 28 29  1  0  0  0  0
 28 56  1  0  0  0  0
 29 30  2  0  0  0  0
 29 57  1  0  0  0  0
 30 58  1  0  0  0  0
 31 32  1  0  0  0  0
 32 33  1  0  0  0  0
 32 59  1  0  0  0  0
 32 60  1  0  0  0  0
 33 34  2  0  0  0  0
 33 38  1  0  0  0  0
 34 35  1  0  0  0  0
 34 61  1  0  0  0  0
 35 36  2  0  0  0  0
 35 62  1  0  0  0  0
 36 37  1  0  0  0  0
 36 63  1  0  0  0  0
 37 38  2  0  0  0  0
 37 64  1  0  0  0  0
 38 65  1  0  0  0  0
M  END
$$$$