44385895 43677751
 OpenBabel01161410053D

 19 19  0  0  0  0  0  0  0  0999 V2000
    2.2616    1.4439    0.0274 N   0  0  0  0  0  0  0  0  0  0  0  0
    2.3144   -0.0167   -0.0281 C   0  0  0  0  0  0  0  0  0  0  0  0
    2.9072   -0.6166    1.2498 C   0  0  0  0  0  0  0  0  0  0  0  0
    4.3727   -0.2307    1.4760 C   0  0  0  0  0  0  0  0  0  0  0  0
    2.0033   -0.5172    2.5052 C   0  0  0  0  0  0  0  0  0  0  0  0
    2.2717   -1.9454    2.7887 N   0  0  0  0  0  0  0  0  0  0  0  0
    2.6562   -2.1420    1.3744 C   0  0  0  0  0  0  0  0  0  0  0  0
    1.7920    1.7928   -0.8090 H   0  0  0  0  0  0  0  0  0  0  0  0
    3.2062    1.8244   -0.0095 H   0  0  0  0  0  0  0  0  0  0  0  0
    2.9012   -0.3244   -0.9015 H   0  0  0  0  0  0  0  0  0  0  0  0
    1.2939   -0.3855   -0.1855 H   0  0  0  0  0  0  0  0  0  0  0  0
    4.8000   -0.7420    2.3457 H   0  0  0  0  0  0  0  0  0  0  0  0
    4.4776    0.8452    1.6516 H   0  0  0  0  0  0  0  0  0  0  0  0
    4.9829   -0.4954    0.6056 H   0  0  0  0  0  0  0  0  0  0  0  0
    0.9442   -0.3168    2.3037 H   0  0  0  0  0  0  0  0  0  0  0  0
    2.3378    0.1714    3.2875 H   0  0  0  0  0  0  0  0  0  0  0  0
    3.0472   -2.0803    3.4384 H   0  0  0  0  0  0  0  0  0  0  0  0
    3.5250   -2.7912    1.2258 H   0  0  0  0  0  0  0  0  0  0  0  0
    1.8339   -2.5342    0.7638 H   0  0  0  0  0  0  0  0  0  0  0  0
  1  2  1  0  0  0  0
  1  8  1  0  0  0  0
  1  9  1  0  0  0  0
  2  3  1  0  0  0  0
  2 10  1  0  0  0  0
  2 11  1  0  0  0  0
  3  7  1  0  0  0  0
  3  5  1  0  0  0  0
  3  4  1  0  0  0  0
  4 12  1  0  0  0  0
  4 13  1  0  0  0  0
  4 14  1  0  0  0  0
  5  6  1  0  0  0  0
  5 15  1  0  0  0  0
  5 16  1  0  0  0  0
  6  7  1  0  0  0  0
  6 17  1  0  0  0  0
  7 18  1  0  0  0  0
  7 19  1  0  0  0  0
M  END
$$$$