10025 32234475
 OpenBabel01161409453D

 23 24  0  0  0  0  0  0  0  0999 V2000
    1.3584    0.7438   -0.7183 N   0  0  0  0  0  0  0  0  0  0  0  0
    2.3408   -0.0080    0.0517 C   0  0  0  0  0  0  0  0  0  0  0  0
    2.7403   -1.2761   -0.6602 C   0  0  0  0  0  0  0  0  0  0  0  0
    3.5030   -1.2133   -1.8354 C   0  0  0  0  0  0  0  0  0  0  0  0
    3.8907   -2.3676   -2.5265 C   0  0  0  0  0  0  0  0  0  0  0  0
    3.4855   -3.6020   -2.0021 C   0  0  0  0  0  0  0  0  0  0  0  0
    2.7210   -3.6990   -0.8422 C   0  0  0  0  0  0  0  0  0  0  0  0
    2.3402   -2.5283   -0.1604 C   0  0  0  0  0  0  0  0  0  0  0  0
    2.5211   -5.0846   -0.6607 C   0  0  0  0  0  0  0  0  0  0  0  0
    3.1008   -5.8198   -1.6114 N   0  0  0  0  0  0  0  0  0  0  0  0
    3.6813   -4.8996   -2.4106 N   0  0  0  0  0  0  0  0  0  0  0  0
    4.4092   -5.3569   -3.5695 C   0  0  0  0  0  0  0  0  0  0  0  0
    1.0205    1.5233   -0.1582 H   0  0  0  0  0  0  0  0  0  0  0  0
    0.5531    0.1453   -0.8965 H   0  0  0  0  0  0  0  0  0  0  0  0
    1.9275   -0.2401    1.0400 H   0  0  0  0  0  0  0  0  0  0  0  0
    3.2312    0.6087    0.2193 H   0  0  0  0  0  0  0  0  0  0  0  0
    3.7950   -0.2403   -2.2298 H   0  0  0  0  0  0  0  0  0  0  0  0
    4.4780   -2.2923   -3.4352 H   0  0  0  0  0  0  0  0  0  0  0  0
    1.7417   -2.6005    0.7429 H   0  0  0  0  0  0  0  0  0  0  0  0
    1.9742   -5.5849    0.1273 H   0  0  0  0  0  0  0  0  0  0  0  0
    4.9638   -4.5301   -4.0170 H   0  0  0  0  0  0  0  0  0  0  0  0
    3.6894   -5.7578   -4.2876 H   0  0  0  0  0  0  0  0  0  0  0  0
    5.1087   -6.1359   -3.2545 H   0  0  0  0  0  0  0  0  0  0  0  0
  1  2  1  0  0  0  0
  1 13  1  0  0  0  0
  1 14  1  0  0  0  0
  2  3  1  0  0  0  0
  2 15  1  0  0  0  0
  2 16  1  0  0  0  0
  3  4  2  0  0  0  0
  3  8  1  0  0  0  0
  4  5  1  0  0  0  0
  4 17  1  0  0  0  0
  5  6  2  0  0  0  0
  5 18  1  0  0  0  0
  6 11  1  0  0  0  0
  6  7  1  0  0  0  0
  7  9  1  0  0  0  0
  7  8  2  0  0  0  0
  8 19  1  0  0  0  0
  9 10  2  0  0  0  0
  9 20  1  0  0  0  0
 10 11  1  0  0  0  0
 11 12  1  0  0  0  0
 12 21  1  0  0  0  0
 12 22  1  0  0  0  0
 12 23  1  0  0  0  0
M  END
$$$$