475069 475068
 OpenBabel01161410393D

  5  4  0  0  0  0  0  0  0  0999 V2000
    1.0810    0.0157    0.0562 C   0  0  0  0  0  0  0  0  0  0  0  0
    2.1734    0.0161    0.0562 H   0  0  0  0  0  0  0  0  0  0  0  0
    0.7171    0.3967   -0.9008 H   0  0  0  0  0  0  0  0  0  0  0  0
    0.7171    0.6546    0.8642 H   0  0  0  0  0  0  0  0  0  0  0  0
    0.7172   -1.0026    0.2050 H   0  0  0  0  0  0  0  0  0  0  0  0
  1  2  1  0  0  0  0
  1  3  1  0  0  0  0
  1  4  1  0  0  0  0
  1  5  1  0  0  0  0
M  END
$$$$