36558643 36558642
 OpenBabel01161410433D

 24 24  0  0  0  0  0  0  0  0999 V2000
    8.2967    2.8101   -0.2057 C   0  0  0  0  0  0  0  0  0  0  0  0
    7.1684    1.8776    0.1665 C   0  0  0  0  0  0  0  0  0  0  0  0
    5.8823    2.0123   -0.4205 C   0  0  0  0  0  0  0  0  0  0  0  0
    5.5310    3.0953   -1.4195 C   0  0  0  0  0  0  0  0  0  0  0  0
    5.5407    4.7888   -0.7446 S   0  0  0  0  0  0  0  0  0  0  0  0
    4.2909    4.6149    0.5503 C   0  0  0  0  0  0  0  0  0  0  0  0
    4.8787    1.0821   -0.0890 C   0  0  0  0  0  0  0  0  0  0  0  0
    5.1293    0.0459    0.8031 C   0  0  0  0  0  0  0  0  0  0  0  0
    6.3770   -0.0552    1.4085 C   0  0  0  0  0  0  0  0  0  0  0  0
    7.3804    0.8876    1.1538 C   0  0  0  0  0  0  0  0  0  0  0  0
    8.6453    0.6813    1.7353 N   0  0  0  0  0  0  0  0  0  0  0  0
    8.1697    3.2453   -1.1998 H   0  0  0  0  0  0  0  0  0  0  0  0
    9.2517    2.2761   -0.2475 H   0  0  0  0  0  0  0  0  0  0  0  0
    8.3713    3.6176    0.5292 H   0  0  0  0  0  0  0  0  0  0  0  0
    4.5369    2.9209   -1.8478 H   0  0  0  0  0  0  0  0  0  0  0  0
    6.2236    3.0452   -2.2667 H   0  0  0  0  0  0  0  0  0  0  0  0
    4.1276    5.5916    1.0143 H   0  0  0  0  0  0  0  0  0  0  0  0
    4.6250    3.9240    1.3282 H   0  0  0  0  0  0  0  0  0  0  0  0
    3.3437    4.2719    0.1263 H   0  0  0  0  0  0  0  0  0  0  0  0
    3.8923    1.1488   -0.5437 H   0  0  0  0  0  0  0  0  0  0  0  0
    4.3569   -0.6856    1.0247 H   0  0  0  0  0  0  0  0  0  0  0  0
    6.5631   -0.8792    2.0927 H   0  0  0  0  0  0  0  0  0  0  0  0
    9.1864    1.5348    1.8308 H   0  0  0  0  0  0  0  0  0  0  0  0
    8.6043    0.1697    2.6108 H   0  0  0  0  0  0  0  0  0  0  0  0
  1  2  1  0  0  0  0
  1 12  1  0  0  0  0
  1 13  1  0  0  0  0
  1 14  1  0  0  0  0
  2  3  2  0  0  0  0
  2 10  1  0  0  0  0
  3  7  1  0  0  0  0
  3  4  1  0  0  0  0
  4  5  1  0  0  0  0
  4 15  1  0  0  0  0
  4 16  1  0  0  0  0
  5  6  1  0  0  0  0
  6 17  1  0  0  0  0
  6 18  1  0  0  0  0
  6 19  1  0  0  0  0
  7  8  2  0  0  0  0
  7 20  1  0  0  0  0
  8  9  1  0  0  0  0
  8 21  1  0  0  0  0
  9 10  2  0  0  0  0
  9 22  1  0  0  0  0
 10 11  1  0  0  0  0
 11 23  1  0  0  0  0
 11 24  1  0  0  0  0
M  END
$$$$