42846767 42846766
 OpenBabel01161410183D

 31 31  0  0  1  0  0  0  0  0999 V2000
    2.9434   -2.2266   -0.0207 C   0  0  0  0  0  0  0  0  0  0  0  0
    2.6023   -0.7878    0.3542 C   0  0  3  0  0  0  0  0  0  0  0  0
    2.7814    0.2512   -0.7263 C   0  0  0  0  0  0  0  0  0  0  0  0
    2.5030    1.5948   -0.4462 C   0  0  0  0  0  0  0  0  0  0  0  0
    2.6759    2.5681   -1.4296 C   0  0  0  0  0  0  0  0  0  0  0  0
    3.1148    2.1766   -2.6857 C   0  0  0  0  0  0  0  0  0  0  0  0
    3.4023    0.8941   -2.9839 N   0  0  0  0  0  0  0  0  0  0  0  0
    3.2322   -0.0304   -2.0099 C   0  0  0  0  0  0  0  0  0  0  0  0
    3.3937    3.4079   -3.9384 S   0  0  0  0  0  0  0  0  0  0  0  0
    2.2860    2.8549   -5.3184 C   0  0  0  0  0  0  0  0  0  0  0  0
    0.8508    2.6332   -4.8243 C   0  0  0  0  0  0  0  0  0  0  0  0
    2.2862    4.0085   -6.3380 C   0  0  0  0  0  0  0  0  0  0  0  0
    2.8269    1.5973   -6.0093 C   0  0  0  0  0  0  0  0  0  0  0  0
    1.2441   -0.7768    0.7992 O   0  0  0  0  0  0  0  0  0  0  0  0
    2.7705   -2.8916    0.8330 H   0  0  0  0  0  0  0  0  0  0  0  0
    3.9890   -2.3286   -0.3280 H   0  0  0  0  0  0  0  0  0  0  0  0
    2.3003   -2.5905   -0.8304 H   0  0  0  0  0  0  0  0  0  0  0  0
    3.2279   -0.5051    1.2092 H   0  0  0  0  0  0  0  0  0  0  0  0
    2.1562    1.8881    0.5429 H   0  0  0  0  0  0  0  0  0  0  0  0
    2.4713    3.6106   -1.2079 H   0  0  0  0  0  0  0  0  0  0  0  0
    3.4860   -1.0393   -2.3253 H   0  0  0  0  0  0  0  0  0  0  0  0
    0.7757    1.7854   -4.1353 H   0  0  0  0  0  0  0  0  0  0  0  0
    0.1826    2.4147   -5.6661 H   0  0  0  0  0  0  0  0  0  0  0  0
    0.4543    3.5213   -4.3188 H   0  0  0  0  0  0  0  0  0  0  0  0
    3.2912    4.2052   -6.7307 H   0  0  0  0  0  0  0  0  0  0  0  0
    1.9018    4.9388   -5.9027 H   0  0  0  0  0  0  0  0  0  0  0  0
    1.6476    3.7688   -7.1968 H   0  0  0  0  0  0  0  0  0  0  0  0
    3.8744    1.7164   -6.3088 H   0  0  0  0  0  0  0  0  0  0  0  0
    2.2528    1.3813   -6.9186 H   0  0  0  0  0  0  0  0  0  0  0  0
    2.7485    0.7065   -5.3806 H   0  0  0  0  0  0  0  0  0  0  0  0
    0.6811   -0.5965    0.0266 H   0  0  0  0  0  0  0  0  0  0  0  0
  1  2  1  0  0  0  0
  1 15  1  0  0  0  0
  1 16  1  0  0  0  0
  1 17  1  0  0  0  0
  2 14  1  0  0  0  0
  2  3  1  0  0  0  0
  2 18  1  0  0  0  0
  3  4  2  0  0  0  0
  3  8  1  0  0  0  0
  4  5  1  0  0  0  0
  4 19  1  0  0  0  0
  5  6  2  0  0  0  0
  5 20  1  0  0  0  0
  6  7  1  0  0  0  0
  6  9  1  0  0  0  0
  7  8  2  0  0  0  0
  8 21  1  0  0  0  0
  9 10  1  0  0  0  0
 10 13  1  0  0  0  0
 10 12  1  0  0  0  0
 10 11  1  0  0  0  0
 11 22  1  0  0  0  0
 11 23  1  0  0  0  0
 11 24  1  0  0  0  0
 12 25  1  0  0  0  0
 12 26  1  0  0  0  0
 12 27  1  0  0  0  0
 13 28  1  0  0  0  0
 13 29  1  0  0  0  0
 13 30  1  0  0  0  0
 14 31  1  0  0  0  0
M  END
$$$$