36465497 36465496
 OpenBabel01161410563D

 41 43  0  0  1  0  0  0  0  0999 V2000
    4.9499    1.0431   -2.8694 C   0  0  0  0  0  0  0  0  0  0  0  0
    4.0664    1.0282   -1.6209 C   0  0  0  0  0  0  0  0  0  0  0  0
    4.1872   -0.3058   -0.9041 C   0  0  0  0  0  0  0  0  0  0  0  0
    5.2022   -0.5729    0.0209 C   0  0  0  0  0  0  0  0  0  0  0  0
    5.2801   -1.8182    0.6447 C   0  0  0  0  0  0  0  0  0  0  0  0
    4.3511   -2.8185    0.3491 C   0  0  0  0  0  0  0  0  0  0  0  0
    3.3379   -2.5816   -0.5724 C   0  0  0  0  0  0  0  0  0  0  0  0
    3.2726   -1.3320   -1.2007 C   0  0  0  0  0  0  0  0  0  0  0  0
    2.3758   -3.4612   -0.9723 O   0  0  0  0  0  0  0  0  0  0  0  0
    2.0427   -4.6214   -0.2075 C   0  0  3  0  0  0  0  0  0  0  0  0
    3.0782   -5.7623   -0.3556 C   0  0  0  0  0  0  0  0  0  0  0  0
    2.4311   -7.1464   -0.4544 C   0  0  0  0  0  0  0  0  0  0  0  0
    1.1368   -7.2701    0.3564 C   0  0  0  0  0  0  0  0  0  0  0  0
    0.2722   -6.0696    0.3569 N   0  0  3  0  0  0  0  0  0  0  0  0
    0.6804   -5.1359   -0.7147 C   0  0  0  0  0  0  0  0  0  0  0  0
    0.5065   -5.2625    1.5717 C   0  0  0  0  0  0  0  0  0  0  0  0
    1.6803   -4.3363    1.2621 C   0  0  0  0  0  0  0  0  0  0  0  0
    4.3757    2.2361   -0.7302 C   0  0  0  0  0  0  0  0  0  0  0  0
    4.8333    1.9852   -3.4159 H   0  0  0  0  0  0  0  0  0  0  0  0
    4.6823    0.2274   -3.5506 H   0  0  0  0  0  0  0  0  0  0  0  0
    6.0092    0.9290   -2.6144 H   0  0  0  0  0  0  0  0  0  0  0  0
    3.0228    1.1445   -1.9437 H   0  0  0  0  0  0  0  0  0  0  0  0
    5.9491    0.1778    0.2648 H   0  0  0  0  0  0  0  0  0  0  0  0
    6.0742   -2.0137    1.3609 H   0  0  0  0  0  0  0  0  0  0  0  0
    4.4643   -3.7693    0.8510 H   0  0  0  0  0  0  0  0  0  0  0  0
    2.4846   -1.1582   -1.9318 H   0  0  0  0  0  0  0  0  0  0  0  0
    3.7654   -5.7708    0.4978 H   0  0  0  0  0  0  0  0  0  0  0  0
    3.7032   -5.6011   -1.2431 H   0  0  0  0  0  0  0  0  0  0  0  0
    2.2076   -7.3507   -1.5098 H   0  0  0  0  0  0  0  0  0  0  0  0
    3.1458   -7.9184   -0.1459 H   0  0  0  0  0  0  0  0  0  0  0  0
    0.5526   -8.0943   -0.0700 H   0  0  0  0  0  0  0  0  0  0  0  0
    1.3732   -7.5904    1.3788 H   0  0  0  0  0  0  0  0  0  0  0  0
    0.7217   -5.5993   -1.7080 H   0  0  0  0  0  0  0  0  0  0  0  0
   -0.0461   -4.3159   -0.8036 H   0  0  0  0  0  0  0  0  0  0  0  0
   -0.3890   -4.6589    1.7666 H   0  0  0  0  0  0  0  0  0  0  0  0
    0.6710   -5.8615    2.4735 H   0  0  0  0  0  0  0  0  0  0  0  0
    1.3783   -3.2908    1.4045 H   0  0  0  0  0  0  0  0  0  0  0  0
    2.5154   -4.5332    1.9424 H   0  0  0  0  0  0  0  0  0  0  0  0
    5.4336    2.2819   -0.4490 H   0  0  0  0  0  0  0  0  0  0  0  0
    3.7814    2.2105    0.1901 H   0  0  0  0  0  0  0  0  0  0  0  0
    4.1394    3.1684   -1.2555 H   0  0  0  0  0  0  0  0  0  0  0  0
  1  2  1  0  0  0  0
  1 19  1  0  0  0  0
  1 20  1  0  0  0  0
  1 21  1  0  0  0  0
  2 18  1  0  0  0  0
  2  3  1  0  0  0  0
  2 22  1  0  0  0  0
  3  4  2  0  0  0  0
  3  8  1  0  0  0  0
  4  5  1  0  0  0  0
  4 23  1  0  0  0  0
  5  6  2  0  0  0  0
  5 24  1  0  0  0  0
  6  7  1  0  0  0  0
  6 25  1  0  0  0  0
  7  8  2  0  0  0  0
  7  9  1  0  0  0  0
  8 26  1  0  0  0  0
  9 10  1  0  0  0  0
 10 17  1  0  0  0  0
 10 11  1  0  0  0  0
 10 15  1  0  0  0  0
 11 12  1  0  0  0  0
 11 27  1  0  0  0  0
 11 28  1  0  0  0  0
 12 13  1  0  0  0  0
 12 29  1  0  0  0  0
 12 30  1  0  0  0  0
 13 14  1  0  0  0  0
 13 31  1  0  0  0  0
 13 32  1  0  0  0  0
 14 16  1  0  0  0  0
 14 15  1  0  0  0  0
 15 33  1  0  0  0  0
 15 34  1  0  0  0  0
 16 17  1  0  0  0  0
 16 35  1  0  0  0  0
 16 36  1  0  0  0  0
 17 37  1  0  0  0  0
 17 38  1  0  0  0  0
 18 39  1  0  0  0  0
 18 40  1  0  0  0  0
 18 41  1  0  0  0  0
M  END
$$$$