45983376 43609427
 OpenBabel01161410233D

 24 25  0  0  1  0  0  0  0  0999 V2000
    2.8238    1.6778   -0.2885 C   0  0  0  0  0  0  0  0  0  0  0  0
    2.5418    0.2583   -0.1184 N   0  0  0  0  0  0  0  0  0  0  0  0
    3.2952   -0.5746   -1.0638 C   0  0  3  0  0  0  0  0  0  0  0  0
    2.8886   -2.0679   -0.9664 C   0  0  0  0  0  0  0  0  0  0  0  0
    4.1118   -2.7424   -1.5092 C   0  0  0  0  0  0  0  0  0  0  0  0
    5.2185   -1.8849   -1.4520 C   0  0  0  0  0  0  0  0  0  0  0  0
    4.8329   -0.5591   -0.8673 C   0  0  0  0  0  0  0  0  0  0  0  0
    6.4764   -2.3063   -1.8548 C   0  0  0  0  0  0  0  0  0  0  0  0
    6.6109   -3.6104   -2.3356 C   0  0  0  0  0  0  0  0  0  0  0  0
    5.4998   -4.4602   -2.3888 C   0  0  0  0  0  0  0  0  0  0  0  0
    4.2391   -4.0410   -1.9706 C   0  0  0  0  0  0  0  0  0  0  0  0
    5.6553   -5.7101   -2.8460 F   0  0  0  0  0  0  0  0  0  0  0  0
    2.2099    2.2543    0.4107 H   0  0  0  0  0  0  0  0  0  0  0  0
    2.5850    2.0165   -1.3016 H   0  0  0  0  0  0  0  0  0  0  0  0
    3.8698    1.9107   -0.0679 H   0  0  0  0  0  0  0  0  0  0  0  0
    1.5431    0.1007   -0.2554 H   0  0  0  0  0  0  0  0  0  0  0  0
    3.0728   -0.2427   -2.0902 H   0  0  0  0  0  0  0  0  0  0  0  0
    2.7242   -2.3826    0.0700 H   0  0  0  0  0  0  0  0  0  0  0  0
    1.9966   -2.2766   -1.5646 H   0  0  0  0  0  0  0  0  0  0  0  0
    5.1099   -0.5286    0.1922 H   0  0  0  0  0  0  0  0  0  0  0  0
    5.2954    0.2776   -1.3990 H   0  0  0  0  0  0  0  0  0  0  0  0
    7.3355   -1.6467   -1.7967 H   0  0  0  0  0  0  0  0  0  0  0  0
    7.5773   -3.9801   -2.6640 H   0  0  0  0  0  0  0  0  0  0  0  0
    3.3974   -4.7213   -2.0078 H   0  0  0  0  0  0  0  0  0  0  0  0
  1  2  1  0  0  0  0
  1 13  1  0  0  0  0
  1 14  1  0  0  0  0
  1 15  1  0  0  0  0
  2  3  1  0  0  0  0
  2 16  1  0  0  0  0
  3  4  1  0  0  0  0
  3  7  1  0  0  0  0
  3 17  1  0  0  0  0
  4  5  1  0  0  0  0
  4 18  1  0  0  0  0
  4 19  1  0  0  0  0
  5 11  1  0  0  0  0
  5  6  2  0  0  0  0
  6  7  1  0  0  0  0
  6  8  1  0  0  0  0
  7 20  1  0  0  0  0
  7 21  1  0  0  0  0
  8  9  2  0  0  0  0
  8 22  1  0  0  0  0
  9 10  1  0  0  0  0
  9 23  1  0  0  0  0
 10 11  2  0  0  0  0
 10 12  1  0  0  0  0
 11 24  1  0  0  0  0
M  END
$$$$