8199255 8199254
 OpenBabel01161410503D

 42 46  0  0  0  0  0  0  0  0999 V2000
   -2.9930   -0.5596   -0.1678 C   0  0  0  0  0  0  0  0  0  0  0  0
   -2.9059    0.7213   -0.6794 C   0  0  0  0  0  0  0  0  0  0  0  0
   -1.6640    1.3487   -0.7503 C   0  0  0  0  0  0  0  0  0  0  0  0
   -0.4668    0.7196   -0.3277 C   0  0  0  0  0  0  0  0  0  0  0  0
   -0.5404   -0.6569    0.0988 C   0  0  0  0  0  0  0  0  0  0  0  0
   -1.8313   -1.2312    0.2159 C   0  0  0  0  0  0  0  0  0  0  0  0
    0.6561   -1.3866    0.4014 C   0  0  0  0  0  0  0  0  0  0  0  0
    0.7178   -2.8237    0.7561 C   0  0  0  0  0  0  0  0  0  0  0  0
    0.0584   -3.8097   -0.0019 C   0  0  0  0  0  0  0  0  0  0  0  0
    0.1308   -5.1637    0.3381 C   0  0  0  0  0  0  0  0  0  0  0  0
    0.9056   -5.5721    1.4188 C   0  0  0  0  0  0  0  0  0  0  0  0
    1.5966   -4.6256    2.1675 C   0  0  0  0  0  0  0  0  0  0  0  0
    1.4925   -3.2693    1.8484 C   0  0  0  0  0  0  0  0  0  0  0  0
    1.8401   -0.6723    0.3126 C   0  0  0  0  0  0  0  0  0  0  0  0
    1.8993    0.6559   -0.0232 C   0  0  0  0  0  0  0  0  0  0  0  0
    0.7832    1.4123   -0.3269 C   0  0  0  0  0  0  0  0  0  0  0  0
    0.9444    2.8671   -0.5522 C   0  0  0  0  0  0  0  0  0  0  0  0
    1.8996    3.3686   -1.4523 C   0  0  0  0  0  0  0  0  0  0  0  0
    2.0831    4.7450   -1.6230 C   0  0  0  0  0  0  0  0  0  0  0  0
    1.3025    5.6487   -0.9085 C   0  0  0  0  0  0  0  0  0  0  0  0
    0.3503    5.1788   -0.0093 C   0  0  0  0  0  0  0  0  0  0  0  0
    0.1870    3.8031    0.1775 C   0  0  0  0  0  0  0  0  0  0  0  0
    3.3911    0.7308    0.1497 C   0  0  0  0  0  0  0  0  0  0  0  0
    3.3335   -0.7942    0.4584 C   0  0  0  0  0  0  0  0  0  0  0  0
   -3.9591   -1.0481   -0.0752 H   0  0  0  0  0  0  0  0  0  0  0  0
   -3.7995    1.2435   -1.0103 H   0  0  0  0  0  0  0  0  0  0  0  0
   -1.6421    2.3560   -1.1626 H   0  0  0  0  0  0  0  0  0  0  0  0
   -1.9562   -2.2314    0.6249 H   0  0  0  0  0  0  0  0  0  0  0  0
   -0.5264   -3.5245   -0.8735 H   0  0  0  0  0  0  0  0  0  0  0  0
   -0.4126   -5.8990   -0.2500 H   0  0  0  0  0  0  0  0  0  0  0  0
    0.9764   -6.6266    1.6730 H   0  0  0  0  0  0  0  0  0  0  0  0
    2.2178   -4.9390    3.0022 H   0  0  0  0  0  0  0  0  0  0  0  0
    2.0334   -2.5513    2.4614 H   0  0  0  0  0  0  0  0  0  0  0  0
    2.5182    2.6853   -2.0299 H   0  0  0  0  0  0  0  0  0  0  0  0
    2.8385    5.1091   -2.3144 H   0  0  0  0  0  0  0  0  0  0  0  0
    1.4405    6.7182   -1.0454 H   0  0  0  0  0  0  0  0  0  0  0  0
   -0.2608    5.8779    0.5551 H   0  0  0  0  0  0  0  0  0  0  0  0
   -0.5441    3.4612    0.9087 H   0  0  0  0  0  0  0  0  0  0  0  0
    3.7490    1.3446    0.9838 H   0  0  0  0  0  0  0  0  0  0  0  0
    3.9782    0.9810   -0.7405 H   0  0  0  0  0  0  0  0  0  0  0  0
    3.8383   -1.4219   -0.2844 H   0  0  0  0  0  0  0  0  0  0  0  0
    3.7157   -1.0573    1.4503 H   0  0  0  0  0  0  0  0  0  0  0  0
  1  2  2  0  0  0  0
  1  6  1  0  0  0  0
  1 25  1  0  0  0  0
  2  3  1  0  0  0  0
  2 26  1  0  0  0  0
  3  4  2  0  0  0  0
  3 27  1  0  0  0  0
  4 16  1  0  0  0  0
  4  5  1  0  0  0  0
  5  6  2  0  0  0  0
  5  7  1  0  0  0  0
  6 28  1  0  0  0  0
  7 14  2  0  0  0  0
  7  8  1  0  0  0  0
  8  9  2  0  0  0  0
  8 13  1  0  0  0  0
  9 10  1  0  0  0  0
  9 29  1  0  0  0  0
 10 11  2  0  0  0  0
 10 30  1  0  0  0  0
 11 12  1  0  0  0  0
 11 31  1  0  0  0  0
 12 13  2  0  0  0  0
 12 32  1  0  0  0  0
 13 33  1  0  0  0  0
 14 15  1  0  0  0  0
 14 24  1  0  0  0  0
 15 16  2  0  0  0  0
 15 23  1  0  0  0  0
 16 17  1  0  0  0  0
 17 18  2  0  0  0  0
 17 22  1  0  0  0  0
 18 19  1  0  0  0  0
 18 34  1  0  0  0  0
 19 20  2  0  0  0  0
 19 35  1  0  0  0  0
 20 21  1  0  0  0  0
 20 36  1  0  0  0  0
 21 22  2  0  0  0  0
 21 37  1  0  0  0  0
 22 38  1  0  0  0  0
 23 24  1  0  0  0  0
 23 39  1  0  0  0  0
 23 40  1  0  0  0  0
 24 41  1  0  0  0  0
 24 42  1  0  0  0  0
M  END
$$$$