503818 503817
 OpenBabel01161410123D

 29 28  0  0  0  0  0  0  0  0999 V2000
    2.2754    0.6231   -0.5657 Cl  0  0  0  0  0  0  0  0  0  0  0  0
    3.9132    0.4622   -1.2804 C   0  0  0  0  0  0  0  0  0  0  0  0
    3.7773   -0.5808   -2.8167 Si  0  0  0  0  0  0  0  0  0  0  0  0
    3.0102   -2.2723   -2.3773 C   0  0  0  0  0  0  0  0  0  0  0  0
    2.6632    0.1689   -4.1405 C   0  0  0  0  0  0  0  0  0  0  0  0
    5.4450   -0.9619   -3.6138 C   0  0  0  0  0  0  0  0  0  0  0  0
    4.6121    2.1720   -1.5134 Si  0  0  0  0  0  0  0  0  0  0  0  0
    3.5291    3.2863   -2.5837 C   0  0  0  0  0  0  0  0  0  0  0  0
    4.7463    3.0460    0.1781 C   0  0  0  0  0  0  0  0  0  0  0  0
    6.3503    2.1812   -2.2440 C   0  0  0  0  0  0  0  0  0  0  0  0
    4.9532   -0.4115   -0.1074 Cl  0  0  0  0  0  0  0  0  0  0  0  0
    3.6270   -2.7931   -1.6403 H   0  0  0  0  0  0  0  0  0  0  0  0
    2.9437   -2.8932   -3.2757 H   0  0  0  0  0  0  0  0  0  0  0  0
    2.0039   -2.1431   -1.9698 H   0  0  0  0  0  0  0  0  0  0  0  0
    3.1611    0.9976   -4.6490 H   0  0  0  0  0  0  0  0  0  0  0  0
    1.7269    0.5316   -3.7081 H   0  0  0  0  0  0  0  0  0  0  0  0
    2.4201   -0.5849   -4.8956 H   0  0  0  0  0  0  0  0  0  0  0  0
    5.8346   -0.0923   -4.1477 H   0  0  0  0  0  0  0  0  0  0  0  0
    5.3353   -1.7742   -4.3391 H   0  0  0  0  0  0  0  0  0  0  0  0
    6.1785   -1.2723   -2.8645 H   0  0  0  0  0  0  0  0  0  0  0  0
    3.5705    2.9891   -3.6339 H   0  0  0  0  0  0  0  0  0  0  0  0
    3.8797    4.3214   -2.5181 H   0  0  0  0  0  0  0  0  0  0  0  0
    2.4873    3.2596   -2.2517 H   0  0  0  0  0  0  0  0  0  0  0  0
    5.4235    2.4995    0.8402 H   0  0  0  0  0  0  0  0  0  0  0  0
    3.7638    3.1135    0.6533 H   0  0  0  0  0  0  0  0  0  0  0  0
    5.1372    4.0587    0.0418 H   0  0  0  0  0  0  0  0  0  0  0  0
    6.9877    1.4408   -1.7530 H   0  0  0  0  0  0  0  0  0  0  0  0
    6.8077    3.1664   -2.1106 H   0  0  0  0  0  0  0  0  0  0  0  0
    6.3261    1.9706   -3.3157 H   0  0  0  0  0  0  0  0  0  0  0  0
  1  2  1  0  0  0  0
  2 11  1  0  0  0  0
  2  7  1  0  0  0  0
  2  3  1  0  0  0  0
  3  6  1  0  0  0  0
  3  5  1  0  0  0  0
  3  4  1  0  0  0  0
  4 12  1  0  0  0  0
  4 13  1  0  0  0  0
  4 14  1  0  0  0  0
  5 15  1  0  0  0  0
  5 16  1  0  0  0  0
  5 17  1  0  0  0  0
  6 18  1  0  0  0  0
  6 19  1  0  0  0  0
  6 20  1  0  0  0  0
  7 10  1  0  0  0  0
  7  9  1  0  0  0  0
  7  8  1  0  0  0  0
  8 21  1  0  0  0  0
  8 22  1  0  0  0  0
  8 23  1  0  0  0  0
  9 24  1  0  0  0  0
  9 25  1  0  0  0  0
  9 26  1  0  0  0  0
 10 27  1  0  0  0  0
 10 28  1  0  0  0  0
 10 29  1  0  0  0  0
M  END
$$$$