45773503 45773502
 OpenBabel01161410133D

 33 33  0  0  1  0  0  0  0  0999 V2000
   -0.6797   -1.1313    0.9147 C   0  0  0  0  0  0  0  0  0  0  0  0
    0.1945   -2.2513    0.8982 O   0  0  0  0  0  0  0  0  0  0  0  0
    1.5935   -1.9863    1.1757 C   0  0  3  0  0  0  0  0  0  0  0  0
    2.0227   -2.1075    2.6751 C   0  0  3  0  0  0  0  0  0  0  0  0
    0.9912   -1.8746    3.7633 C   0  0  0  0  0  0  0  0  0  0  0  0
    2.3508   -3.5894    2.3687 C   0  0  3  0  0  0  0  0  0  0  0  0
    2.6002   -3.1824    0.8658 C   0  0  0  0  0  0  0  0  0  0  0  0
    2.0378   -4.2485   -0.1013 C   0  0  0  0  0  0  0  0  0  0  0  0
    1.8698   -3.7325   -1.5247 C   0  0  0  0  0  0  0  0  0  0  0  0
    3.9826   -2.6283    0.4286 C   0  0  0  0  0  0  0  0  0  0  0  0
    5.0232   -3.7027    0.1371 C   0  0  0  0  0  0  0  0  0  0  0  0
    3.5703   -3.9611    3.0750 N   0  0  0  0  0  0  0  0  0  0  0  0
   -0.6926   -0.6683   -0.0750 H   0  0  0  0  0  0  0  0  0  0  0  0
   -0.3690   -0.3934    1.6600 H   0  0  0  0  0  0  0  0  0  0  0  0
   -1.6845   -1.4800    1.1618 H   0  0  0  0  0  0  0  0  0  0  0  0
    1.8940   -1.0385    0.7112 H   0  0  0  0  0  0  0  0  0  0  0  0
    2.8992   -1.4750    2.8823 H   0  0  0  0  0  0  0  0  0  0  0  0
    0.0876   -2.4720    3.6063 H   0  0  0  0  0  0  0  0  0  0  0  0
    0.7016   -0.8190    3.8003 H   0  0  0  0  0  0  0  0  0  0  0  0
    1.4020   -2.1391    4.7433 H   0  0  0  0  0  0  0  0  0  0  0  0
    1.5143   -4.2792    2.5328 H   0  0  0  0  0  0  0  0  0  0  0  0
    1.0599   -4.6013    0.2483 H   0  0  0  0  0  0  0  0  0  0  0  0
    2.6850   -5.1327   -0.1073 H   0  0  0  0  0  0  0  0  0  0  0  0
    1.2469   -2.8335   -1.5575 H   0  0  0  0  0  0  0  0  0  0  0  0
    1.3928   -4.4973   -2.1460 H   0  0  0  0  0  0  0  0  0  0  0  0
    2.8314   -3.4892   -1.9853 H   0  0  0  0  0  0  0  0  0  0  0  0
    4.3866   -1.9532    1.1934 H   0  0  0  0  0  0  0  0  0  0  0  0
    3.8645   -2.0111   -0.4706 H   0  0  0  0  0  0  0  0  0  0  0  0
    5.1270   -4.4185    0.9545 H   0  0  0  0  0  0  0  0  0  0  0  0
    6.0004   -3.2383   -0.0289 H   0  0  0  0  0  0  0  0  0  0  0  0
    4.7747   -4.2659   -0.7670 H   0  0  0  0  0  0  0  0  0  0  0  0
    4.3509   -3.3142    2.9947 H   0  0  0  0  0  0  0  0  0  0  0  0
    3.9261   -4.8825    2.8208 H   0  0  0  0  0  0  0  0  0  0  0  0
  1  2  1  0  0  0  0
  1 13  1  0  0  0  0
  1 14  1  0  0  0  0
  1 15  1  0  0  0  0
  2  3  1  0  0  0  0
  3  7  1  0  0  0  0
  3  4  1  0  0  0  0
  3 16  1  0  0  0  0
  4  6  1  0  0  0  0
  4  5  1  0  0  0  0
  4 17  1  0  0  0  0
  5 18  1  0  0  0  0
  5 19  1  0  0  0  0
  5 20  1  0  0  0  0
  6  7  1  0  0  0  0
  6 12  1  0  0  0  0
  6 21  1  0  0  0  0
  7 10  1  0  0  0  0
  7  8  1  0  0  0  0
  8  9  1  0  0  0  0
  8 22  1  0  0  0  0
  8 23  1  0  0  0  0
  9 24  1  0  0  0  0
  9 25  1  0  0  0  0
  9 26  1  0  0  0  0
 10 11  1  0  0  0  0
 10 27  1  0  0  0  0
 10 28  1  0  0  0  0
 11 29  1  0  0  0  0
 11 30  1  0  0  0  0
 11 31  1  0  0  0  0
 12 32  1  0  0  0  0
 12 33  1  0  0  0  0
M  END
$$$$