42840567 42840566
 OpenBabel01161410063D

 24 25  0  0  1  0  0  0  0  0999 V2000
    1.2267    0.2004   -0.1603 C   0  0  0  0  0  0  0  0  0  0  0  0
    2.6502    0.0749    0.1217 N   0  0  0  0  0  0  0  0  0  0  0  0
    3.1100    1.0529    1.1056 C   0  0  0  0  0  0  0  0  0  0  0  0
    4.4726    0.5040    1.4785 C   0  0  0  0  0  0  0  0  0  0  0  0
    4.2422   -0.9992    1.5418 C   0  0  0  0  0  0  0  0  0  0  0  0
    3.0188   -1.2515    0.6479 C   0  0  3  0  0  0  0  0  0  0  0  0
    3.3060   -2.1873   -0.4974 C   0  0  0  0  0  0  0  0  0  0  0  0
    4.1689   -1.9328   -1.5515 C   0  0  0  0  0  0  0  0  0  0  0  0
    4.2613   -3.2211   -2.6695 S   0  0  0  0  0  0  0  0  0  0  0  0
    3.1424   -4.1483   -1.7729 C   0  0  0  0  0  0  0  0  0  0  0  0
    2.7128   -3.4879   -0.6433 C   0  0  0  0  0  0  0  0  0  0  0  0
    0.9143   -0.5224   -0.9215 H   0  0  0  0  0  0  0  0  0  0  0  0
    1.0053    1.1958   -0.5603 H   0  0  0  0  0  0  0  0  0  0  0  0
    0.6105    0.0464    0.7328 H   0  0  0  0  0  0  0  0  0  0  0  0
    2.4590    1.0837    1.9882 H   0  0  0  0  0  0  0  0  0  0  0  0
    3.1830    2.0592    0.6822 H   0  0  0  0  0  0  0  0  0  0  0  0
    5.2072    0.7371    0.6974 H   0  0  0  0  0  0  0  0  0  0  0  0
    4.8430    0.9068    2.4258 H   0  0  0  0  0  0  0  0  0  0  0  0
    5.1420   -1.5488    1.2460 H   0  0  0  0  0  0  0  0  0  0  0  0
    4.0043   -1.2830    2.5745 H   0  0  0  0  0  0  0  0  0  0  0  0
    2.2171   -1.6644    1.2761 H   0  0  0  0  0  0  0  0  0  0  0  0
    4.7485   -1.0343   -1.7162 H   0  0  0  0  0  0  0  0  0  0  0  0
    2.8524   -5.1315   -2.1165 H   0  0  0  0  0  0  0  0  0  0  0  0
    1.9998   -3.9158    0.0510 H   0  0  0  0  0  0  0  0  0  0  0  0
  1  2  1  0  0  0  0
  1 12  1  0  0  0  0
  1 13  1  0  0  0  0
  1 14  1  0  0  0  0
  2  6  1  0  0  0  0
  2  3  1  0  0  0  0
  3  4  1  0  0  0  0
  3 15  1  0  0  0  0
  3 16  1  0  0  0  0
  4  5  1  0  0  0  0
  4 17  1  0  0  0  0
  4 18  1  0  0  0  0
  5  6  1  0  0  0  0
  5 19  1  0  0  0  0
  5 20  1  0  0  0  0
  6  7  1  0  0  0  0
  6 21  1  0  0  0  0
  7  8  2  0  0  0  0
  7 11  1  0  0  0  0
  8  9  1  0  0  0  0
  8 22  1  0  0  0  0
  9 10  1  0  0  0  0
 10 11  2  0  0  0  0
 10 23  1  0  0  0  0
 11 24  1  0  0  0  0
M  END
$$$$