2517753 2517752
 OpenBabel01161410053D

 32 32  0  0  0  0  0  0  0  0999 V2000
    0.6384   -3.5611    2.8287 C   0  0  0  0  0  0  0  0  0  0  0  0
    2.1060   -3.9470    2.9083 C   0  0  0  0  0  0  0  0  0  0  0  0
    3.0192   -2.7715    2.5605 C   0  0  0  0  0  0  0  0  0  0  0  0
    4.4898   -3.1827    2.6349 C   0  0  0  0  0  0  0  0  0  0  0  0
    5.3314   -2.0594    2.2636 N   0  0  0  0  0  0  0  0  0  0  0  0
    6.6978   -2.3075    2.3212 C   0  0  0  0  0  0  0  0  0  0  0  0
    7.4615   -1.2651    2.5860 N   0  0  0  0  0  0  0  0  0  0  0  0
    8.7596   -1.5326    2.6070 C   0  0  0  0  0  0  0  0  0  0  0  0
    9.8635   -0.1914    2.9515 S   0  0  0  0  0  0  0  0  0  0  0  0
    9.3201   -2.7205    2.4141 N   0  0  0  0  0  0  0  0  0  0  0  0
    8.4769   -3.7152    2.1755 C   0  0  0  0  0  0  0  0  0  0  0  0
    7.1596   -3.5356    2.1246 N   0  0  0  0  0  0  0  0  0  0  0  0
    8.9823   -4.9988    1.9527 N   0  0  0  0  0  0  0  0  0  0  0  0
   10.3632   -5.2026    2.3576 C   0  0  0  0  0  0  0  0  0  0  0  0
    8.0454   -6.0742    2.2420 C   0  0  0  0  0  0  0  0  0  0  0  0
    0.0079   -4.4181    3.0860 H   0  0  0  0  0  0  0  0  0  0  0  0
    0.3729   -3.2357    1.8178 H   0  0  0  0  0  0  0  0  0  0  0  0
    0.4080   -2.7482    3.5245 H   0  0  0  0  0  0  0  0  0  0  0  0
    2.2947   -4.7806    2.2215 H   0  0  0  0  0  0  0  0  0  0  0  0
    2.3298   -4.3048    3.9201 H   0  0  0  0  0  0  0  0  0  0  0  0
    2.8319   -1.9379    3.2489 H   0  0  0  0  0  0  0  0  0  0  0  0
    2.7876   -2.4069    1.5518 H   0  0  0  0  0  0  0  0  0  0  0  0
    4.6535   -4.0257    1.9521 H   0  0  0  0  0  0  0  0  0  0  0  0
    4.7256   -3.5150    3.6537 H   0  0  0  0  0  0  0  0  0  0  0  0
    5.1636   -1.1867    2.7525 H   0  0  0  0  0  0  0  0  0  0  0  0
   10.9592   -0.9511    2.8391 H   0  0  0  0  0  0  0  0  0  0  0  0
   11.0410   -4.5217    1.8303 H   0  0  0  0  0  0  0  0  0  0  0  0
   10.6876   -6.2182    2.1046 H   0  0  0  0  0  0  0  0  0  0  0  0
   10.4871   -5.0715    3.4384 H   0  0  0  0  0  0  0  0  0  0  0  0
    7.1419   -6.0041    1.6249 H   0  0  0  0  0  0  0  0  0  0  0  0
    7.7583   -6.0774    3.3003 H   0  0  0  0  0  0  0  0  0  0  0  0
    8.4978   -7.0465    2.0169 H   0  0  0  0  0  0  0  0  0  0  0  0
  1  2  1  0  0  0  0
  1 16  1  0  0  0  0
  1 17  1  0  0  0  0
  1 18  1  0  0  0  0
  2  3  1  0  0  0  0
  2 19  1  0  0  0  0
  2 20  1  0  0  0  0
  3  4  1  0  0  0  0
  3 21  1  0  0  0  0
  3 22  1  0  0  0  0
  4  5  1  0  0  0  0
  4 23  1  0  0  0  0
  4 24  1  0  0  0  0
  5  6  1  0  0  0  0
  5 25  1  0  0  0  0
  6 12  1  0  0  0  0
  6  7  2  0  0  0  0
  7  8  1  0  0  0  0
  8 10  2  0  0  0  0
  8  9  1  0  0  0  0
  9 26  1  0  0  0  0
 10 11  1  0  0  0  0
 11 12  2  0  0  0  0
 11 13  1  0  0  0  0
 13 15  1  0  0  0  0
 13 14  1  0  0  0  0
 14 27  1  0  0  0  0
 14 28  1  0  0  0  0
 14 29  1  0  0  0  0
 15 30  1  0  0  0  0
 15 31  1  0  0  0  0
 15 32  1  0  0  0  0
M  END
$$$$