36775382 36775381
 OpenBabel01161410583D

 30 32  0  0  0  0  0  0  0  0999 V2000
    2.7383    1.5659   -0.6848 Cl  0  0  0  0  0  0  0  0  0  0  0  0
    2.0723   -0.0518   -0.3618 C   0  0  0  0  0  0  0  0  0  0  0  0
    3.3404   -1.3553   -0.7292 Si  0  0  3  0  0  0  0  0  0  0  0  0
    4.0642   -1.2012   -2.4434 C   0  0  0  0  0  0  0  0  0  0  0  0
    4.6763   -1.4313    0.5661 C   0  0  0  0  0  0  0  0  0  0  0  0
    5.6676   -0.4297    0.6295 C   0  0  0  0  0  0  0  0  0  0  0  0
    6.6619   -0.4622    1.6086 C   0  0  0  0  0  0  0  0  0  0  0  0
    6.6841   -1.4924    2.5395 C   0  0  0  0  0  0  0  0  0  0  0  0
    5.7112   -2.4888    2.4868 C   0  0  0  0  0  0  0  0  0  0  0  0
    4.7105   -2.4687    1.5039 C   0  0  0  0  0  0  0  0  0  0  0  0
    3.8241   -3.5141    1.6041 O   0  0  0  0  0  0  0  0  0  0  0  0
    2.9437   -3.8445    0.6030 C   0  0  0  0  0  0  0  0  0  0  0  0
    2.5951   -3.0533   -0.4962 C   0  0  0  0  0  0  0  0  0  0  0  0
    1.6526   -3.5509   -1.4204 C   0  0  0  0  0  0  0  0  0  0  0  0
    1.0697   -4.8066   -1.2450 C   0  0  0  0  0  0  0  0  0  0  0  0
    1.4160   -5.5837   -0.1461 C   0  0  0  0  0  0  0  0  0  0  0  0
    2.3470   -5.1017    0.7726 C   0  0  0  0  0  0  0  0  0  0  0  0
    1.1862   -0.1689   -0.9918 H   0  0  0  0  0  0  0  0  0  0  0  0
    1.7534   -0.0778    0.6840 H   0  0  0  0  0  0  0  0  0  0  0  0
    4.7497   -2.0274   -2.6528 H   0  0  0  0  0  0  0  0  0  0  0  0
    4.6215   -0.2671   -2.5551 H   0  0  0  0  0  0  0  0  0  0  0  0
    3.2766   -1.2154   -3.2019 H   0  0  0  0  0  0  0  0  0  0  0  0
    5.6767    0.3969   -0.0807 H   0  0  0  0  0  0  0  0  0  0  0  0
    7.4151    0.3210    1.6441 H   0  0  0  0  0  0  0  0  0  0  0  0
    7.4532   -1.5224    3.3057 H   0  0  0  0  0  0  0  0  0  0  0  0
    5.7301   -3.2936    3.2177 H   0  0  0  0  0  0  0  0  0  0  0  0
    1.3566   -2.9666   -2.2908 H   0  0  0  0  0  0  0  0  0  0  0  0
    0.3445   -5.1763   -1.9653 H   0  0  0  0  0  0  0  0  0  0  0  0
    0.9651   -6.5615   -0.0023 H   0  0  0  0  0  0  0  0  0  0  0  0
    2.6154   -5.7123    1.6317 H   0  0  0  0  0  0  0  0  0  0  0  0
  1  2  1  0  0  0  0
  2  3  1  0  0  0  0
  2 18  1  0  0  0  0
  2 19  1  0  0  0  0
  3 13  1  0  0  0  0
  3  5  1  0  0  0  0
  3  4  1  0  0  0  0
  4 20  1  0  0  0  0
  4 21  1  0  0  0  0
  4 22  1  0  0  0  0
  5 10  1  0  0  0  0
  5  6  2  0  0  0  0
  6  7  1  0  0  0  0
  6 23  1  0  0  0  0
  7  8  2  0  0  0  0
  7 24  1  0  0  0  0
  8  9  1  0  0  0  0
  8 25  1  0  0  0  0
  9 10  2  0  0  0  0
  9 26  1  0  0  0  0
 10 11  1  0  0  0  0
 11 12  1  0  0  0  0
 12 17  1  0  0  0  0
 12 13  2  0  0  0  0
 13 14  1  0  0  0  0
 14 15  2  0  0  0  0
 14 27  1  0  0  0  0
 15 16  1  0  0  0  0
 15 28  1  0  0  0  0
 16 17  2  0  0  0  0
 16 29  1  0  0  0  0
 17 30  1  0  0  0  0
M  END
$$$$