44467178 44467177
 OpenBabel01161410093D

 24 27  0  0  0  0  0  0  0  0999 V2000
    3.3444    0.0006   -0.0269 C   0  0  0  0  0  0  0  0  0  0  0  0
    2.7317   -1.2298    0.3922 O   0  0  0  0  0  0  0  0  0  0  0  0
    1.3802   -1.2058    0.1870 C   0  0  0  0  0  0  0  0  0  0  0  0
    0.6925   -2.4159    0.1032 C   0  0  0  0  0  0  0  0  0  0  0  0
   -0.6917   -2.4160   -0.1038 C   0  0  0  0  0  0  0  0  0  0  0  0
   -1.3796   -1.2060   -0.1877 C   0  0  0  0  0  0  0  0  0  0  0  0
   -0.6959    0.0003   -0.0908 C   0  0  0  0  0  0  0  0  0  0  0  0
    0.6965    0.0005    0.0897 C   0  0  0  0  0  0  0  0  0  0  0  0
    1.3802    1.2068    0.1867 C   0  0  0  0  0  0  0  0  0  0  0  0
    2.7316    1.2307    0.3917 O   0  0  0  0  0  0  0  0  0  0  0  0
    0.6923    2.4168    0.1025 C   0  0  0  0  0  0  0  0  0  0  0  0
   -0.6919    2.4167   -0.1045 C   0  0  0  0  0  0  0  0  0  0  0  0
   -1.3797    1.2066   -0.1881 C   0  0  0  0  0  0  0  0  0  0  0  0
   -2.7312    1.2305   -0.3928 O   0  0  0  0  0  0  0  0  0  0  0  0
   -3.3436    0.0003    0.0267 C   0  0  0  0  0  0  0  0  0  0  0  0
   -2.7310   -1.2300   -0.3925 O   0  0  0  0  0  0  0  0  0  0  0  0
    4.3597    0.0005    0.3829 H   0  0  0  0  0  0  0  0  0  0  0  0
    3.4467    0.0003   -1.1213 H   0  0  0  0  0  0  0  0  0  0  0  0
    1.2317   -3.3554    0.1857 H   0  0  0  0  0  0  0  0  0  0  0  0
   -1.2309   -3.3556   -0.1862 H   0  0  0  0  0  0  0  0  0  0  0  0
    1.2315    3.3564    0.1848 H   0  0  0  0  0  0  0  0  0  0  0  0
   -1.2311    3.3562   -0.1871 H   0  0  0  0  0  0  0  0  0  0  0  0
   -4.3593    0.0002   -0.3822 H   0  0  0  0  0  0  0  0  0  0  0  0
   -3.4451    0.0004    1.1212 H   0  0  0  0  0  0  0  0  0  0  0  0
  1 10  1  0  0  0  0
  1  2  1  0  0  0  0
  1 17  1  0  0  0  0
  1 18  1  0  0  0  0
  2  3  1  0  0  0  0
  3  4  2  0  0  0  0
  3  8  1  0  0  0  0
  4  5  1  0  0  0  0
  4 19  1  0  0  0  0
  5  6  2  0  0  0  0
  5 20  1  0  0  0  0
  6 16  1  0  0  0  0
  6  7  1  0  0  0  0
  7 13  1  0  0  0  0
  7  8  2  0  0  0  0
  8  9  1  0  0  0  0
  9 10  1  0  0  0  0
  9 11  2  0  0  0  0
 11 12  1  0  0  0  0
 11 21  1  0  0  0  0
 12 13  2  0  0  0  0
 12 22  1  0  0  0  0
 13 14  1  0  0  0  0
 14 15  1  0  0  0  0
 15 16  1  0  0  0  0
 15 23  1  0  0  0  0
 15 24  1  0  0  0  0
M  END
$$$$