11617017 11617016
 OpenBabel01161410163D

 50 61  0  0  1  0  0  0  0  0999 V2000
    1.1046    2.4770    0.0647 C   0  0  0  0  0  0  0  0  0  0  0  0
    1.8078    1.9087   -0.9917 C   0  0  0  0  0  0  0  0  0  0  0  0
    2.8082    0.9646   -0.7430 C   0  0  0  0  0  0  0  0  0  0  0  0
    3.1439    0.5844    0.5663 C   0  0  0  0  0  0  0  0  0  0  0  0
    2.3930    1.1425    1.6141 C   0  0  0  0  0  0  0  0  0  0  0  0
    1.3919    2.0872    1.3682 C   0  0  0  0  0  0  0  0  0  0  0  0
    4.2049   -0.4693    0.8294 C   0  0  3  0  0  0  0  0  0  0  0  0
    5.4492   -0.5245   -0.3587 C   0  0  3  0  0  0  0  0  0  0  0  0
    6.8442   -0.4650    0.5171 C   0  0  3  0  0  0  0  0  0  0  0  0
    6.5965   -0.3233    2.1003 C   0  0  3  0  0  0  0  0  0  0  0  0
    4.9653   -0.3688    2.2887 C   0  0  3  0  0  0  0  0  0  0  0  0
    4.6184   -1.7064    3.1004 C   0  0  3  0  0  0  0  0  0  0  0  0
    3.7878   -2.6459    2.1890 C   0  0  3  0  0  0  0  0  0  0  0  0
    3.4604   -1.9692    0.8300 C   0  0  3  0  0  0  0  0  0  0  0  0
    4.1418   -2.9328   -0.3294 C   0  0  3  0  0  0  0  0  0  0  0  0
    5.3549   -2.0831   -0.8151 C   0  0  3  0  0  0  0  0  0  0  0  0
    6.7396   -2.8497   -0.4887 C   0  0  3  0  0  0  0  0  0  0  0  0
    7.7741   -1.8533    0.2373 C   0  0  3  0  0  0  0  0  0  0  0  0
    7.9471   -2.5894    1.7431 C   0  0  3  0  0  0  0  0  0  0  0  0
    7.0044   -1.7501    2.6580 C   0  0  3  0  0  0  0  0  0  0  0  0
    5.9576   -2.4915    3.4763 C   0  0  3  0  0  0  0  0  0  0  0  0
    5.9079   -3.9271    2.7589 C   0  0  3  0  0  0  0  0  0  0  0  0
    4.5714   -3.9694    1.9611 C   0  0  3  0  0  0  0  0  0  0  0  0
    4.8233   -4.1886    0.4446 C   0  0  3  0  0  0  0  0  0  0  0  0
    6.4270   -4.2187    0.2199 C   0  0  3  0  0  0  0  0  0  0  0  0
    7.1253   -4.0583    1.7110 C   0  0  3  0  0  0  0  0  0  0  0  0
    0.3248    3.2084   -0.1274 H   0  0  0  0  0  0  0  0  0  0  0  0
    1.5721    2.1917   -2.0148 H   0  0  0  0  0  0  0  0  0  0  0  0
    3.3044    0.5185   -1.6005 H   0  0  0  0  0  0  0  0  0  0  0  0
    2.5583    0.8389    2.6446 H   0  0  0  0  0  0  0  0  0  0  0  0
    0.8311    2.5093    2.1979 H   0  0  0  0  0  0  0  0  0  0  0  0
    5.4035    0.2083   -1.1630 H   0  0  0  0  0  0  0  0  0  0  0  0
    6.1918   -1.1376    0.8629 H   0  0  0  0  0  0  0  0  0  0  0  0
    7.0879    0.5247    2.5785 H   0  0  0  0  0  0  0  0  0  0  0  0
    4.6808    0.5180    2.8611 H   0  0  0  0  0  0  0  0  0  0  0  0
    4.0606   -1.4576    4.0097 H   0  0  0  0  0  0  0  0  0  0  0  0
    2.8443   -2.8795    2.6983 H   0  0  0  0  0  0  0  0  0  0  0  0
    2.3806   -1.9003    0.6603 H   0  0  0  0  0  0  0  0  0  0  0  0
    3.4449   -3.2142   -1.1216 H   0  0  0  0  0  0  0  0  0  0  0  0
    5.1879   -2.0836    0.2072 H   0  0  0  0  0  0  0  0  0  0  0  0
    6.4587   -2.7619    0.4901 H   0  0  0  0  0  0  0  0  0  0  0  0
    8.7110   -1.6806   -0.2927 H   0  0  0  0  0  0  0  0  0  0  0  0
    8.9795   -2.6655    2.0863 H   0  0  0  0  0  0  0  0  0  0  0  0
    6.2831   -2.1234    2.0034 H   0  0  0  0  0  0  0  0  0  0  0  0
    6.1712   -2.5335    4.5461 H   0  0  0  0  0  0  0  0  0  0  0  0
    5.9539   -4.7281    3.5036 H   0  0  0  0  0  0  0  0  0  0  0  0
    3.9668   -4.8044    2.3371 H   0  0  0  0  0  0  0  0  0  0  0  0
    4.3785   -5.1281    0.1007 H   0  0  0  0  0  0  0  0  0  0  0  0
    6.7848   -5.0926   -0.3286 H   0  0  0  0  0  0  0  0  0  0  0  0
    7.7948   -4.8925    1.9360 H   0  0  0  0  0  0  0  0  0  0  0  0
  1  2  2  0  0  0  0
  1  6  1  0  0  0  0
  1 27  1  0  0  0  0
  2  3  1  0  0  0  0
  2 28  1  0  0  0  0
  3  4  2  0  0  0  0
  3 29  1  0  0  0  0
  4  5  1  0  0  0  0
  4  7  1  0  0  0  0
  5  6  2  0  0  0  0
  5 30  1  0  0  0  0
  6 31  1  0  0  0  0
  7 14  1  0  0  0  0
  7 11  1  0  0  0  0
  7  8  1  0  0  0  0
  8  9  1  0  0  0  0
  8 16  1  0  0  0  0
  8 32  1  0  0  0  0
  9 10  1  0  0  0  0
  9 18  1  0  0  0  0
  9 33  1  0  0  0  0
 10 11  1  0  0  0  0
 10 20  1  0  0  0  0
 10 34  1  0  0  0  0
 11 12  1  0  0  0  0
 11 35  1  0  0  0  0
 12 13  1  0  0  0  0
 12 21  1  0  0  0  0
 12 36  1  0  0  0  0
 13 14  1  0  0  0  0
 13 23  1  0  0  0  0
 13 37  1  0  0  0  0
 14 15  1  0  0  0  0
 14 38  1  0  0  0  0
 15 24  1  0  0  0  0
 15 16  1  0  0  0  0
 15 39  1  0  0  0  0
 16 17  1  0  0  0  0
 16 40  1  0  0  0  0
 17 18  1  0  0  0  0
 17 25  1  0  0  0  0
 17 41  1  0  0  0  0
 18 19  1  0  0  0  0
 18 42  1  0  0  0  0
 19 20  1  0  0  0  0
 19 26  1  0  0  0  0
 19 43  1  0  0  0  0
 20 21  1  0  0  0  0
 20 44  1  0  0  0  0
 21 22  1  0  0  0  0
 21 45  1  0  0  0  0
 22 26  1  0  0  0  0
 22 23  1  0  0  0  0
 22 46  1  0  0  0  0
 23 24  1  0  0  0  0
 23 47  1  0  0  0  0
 24 25  1  0  0  0  0
 24 48  1  0  0  0  0
 25 26  1  0  0  0  0
 25 49  1  0  0  0  0
 26 50  1  0  0  0  0
M  END
$$$$