23840000 23839999
 OpenBabel01161410173D

 40 41  0  0  0  0  0  0  0  0999 V2000
    1.9874    1.0973   -0.0530 N   0  0  0  0  0  0  0  0  0  0  0  0
    3.3244    1.5873   -0.3701 O   0  0  0  0  0  0  0  0  0  0  0  0
    3.4193    2.7448   -1.5981 Si  0  0  3  0  0  0  0  0  0  0  0  0
    2.5676    2.1003   -3.3162 C   0  0  0  0  0  0  0  0  0  0  0  0
    1.0547    1.8516   -3.1115 C   0  0  0  0  0  0  0  0  0  0  0  0
    2.7269    3.1167   -4.4670 C   0  0  0  0  0  0  0  0  0  0  0  0
    3.2422    0.7725   -3.7398 C   0  0  0  0  0  0  0  0  0  0  0  0
    2.7393    4.3987   -0.9590 C   0  0  0  0  0  0  0  0  0  0  0  0
    2.7092    5.5531   -1.7635 C   0  0  0  0  0  0  0  0  0  0  0  0
    2.2059    6.7642   -1.2776 C   0  0  0  0  0  0  0  0  0  0  0  0
    1.7222    6.8500    0.0234 C   0  0  0  0  0  0  0  0  0  0  0  0
    1.7466    5.7260    0.8416 C   0  0  0  0  0  0  0  0  0  0  0  0
    2.2525    4.5156    0.3576 C   0  0  0  0  0  0  0  0  0  0  0  0
    5.3025    3.0407   -1.8341 C   0  0  0  0  0  0  0  0  0  0  0  0
    5.8058    3.9828   -2.7486 C   0  0  0  0  0  0  0  0  0  0  0  0
    7.1834    4.1667   -2.9071 C   0  0  0  0  0  0  0  0  0  0  0  0
    8.0825    3.4203   -2.1525 C   0  0  0  0  0  0  0  0  0  0  0  0
    7.6077    2.4875   -1.2362 C   0  0  0  0  0  0  0  0  0  0  0  0
    6.2318    2.2975   -1.0783 C   0  0  0  0  0  0  0  0  0  0  0  0
    1.9571    1.2320    0.9592 H   0  0  0  0  0  0  0  0  0  0  0  0
    2.1014    0.0918   -0.1947 H   0  0  0  0  0  0  0  0  0  0  0  0
    0.8651    1.0213   -2.4258 H   0  0  0  0  0  0  0  0  0  0  0  0
    0.5717    1.5903   -4.0604 H   0  0  0  0  0  0  0  0  0  0  0  0
    0.5490    2.7403   -2.7176 H   0  0  0  0  0  0  0  0  0  0  0  0
    3.7766    3.3262   -4.6885 H   0  0  0  0  0  0  0  0  0  0  0  0
    2.2241    4.0624   -4.2456 H   0  0  0  0  0  0  0  0  0  0  0  0
    2.2798    2.7293   -5.3898 H   0  0  0  0  0  0  0  0  0  0  0  0
    4.3106    0.9120   -3.9406 H   0  0  0  0  0  0  0  0  0  0  0  0
    2.7850    0.3775   -4.6543 H   0  0  0  0  0  0  0  0  0  0  0  0
    3.1457    0.0049   -2.9644 H   0  0  0  0  0  0  0  0  0  0  0  0
    3.0827    5.5407   -2.7834 H   0  0  0  0  0  0  0  0  0  0  0  0
    2.1952    7.6419   -1.9186 H   0  0  0  0  0  0  0  0  0  0  0  0
    1.3309    7.7908    0.3997 H   0  0  0  0  0  0  0  0  0  0  0  0
    1.3732    5.7873    1.8603 H   0  0  0  0  0  0  0  0  0  0  0  0
    2.2587    3.6630    1.0331 H   0  0  0  0  0  0  0  0  0  0  0  0
    5.1430    4.5945   -3.3533 H   0  0  0  0  0  0  0  0  0  0  0  0
    7.5522    4.8989   -3.6206 H   0  0  0  0  0  0  0  0  0  0  0  0
    9.1522    3.5681   -2.2751 H   0  0  0  0  0  0  0  0  0  0  0  0
    8.3065    1.9067   -0.6402 H   0  0  0  0  0  0  0  0  0  0  0  0
    5.9007    1.5593   -0.3492 H   0  0  0  0  0  0  0  0  0  0  0  0
  1  2  1  0  0  0  0
  1 20  1  0  0  0  0
  1 21  1  0  0  0  0
  2  3  1  0  0  0  0
  3 14  1  0  0  0  0
  3  8  1  0  0  0  0
  3  4  1  0  0  0  0
  4  7  1  0  0  0  0
  4  6  1  0  0  0  0
  4  5  1  0  0  0  0
  5 22  1  0  0  0  0
  5 23  1  0  0  0  0
  5 24  1  0  0  0  0
  6 25  1  0  0  0  0
  6 26  1  0  0  0  0
  6 27  1  0  0  0  0
  7 28  1  0  0  0  0
  7 29  1  0  0  0  0
  7 30  1  0  0  0  0
  8  9  2  0  0  0  0
  8 13  1  0  0  0  0
  9 10  1  0  0  0  0
  9 31  1  0  0  0  0
 10 11  2  0  0  0  0
 10 32  1  0  0  0  0
 11 12  1  0  0  0  0
 11 33  1  0  0  0  0
 12 13  2  0  0  0  0
 12 34  1  0  0  0  0
 13 35  1  0  0  0  0
 14 15  2  0  0  0  0
 14 19  1  0  0  0  0
 15 16  1  0  0  0  0
 15 36  1  0  0  0  0
 16 17  2  0  0  0  0
 16 37  1  0  0  0  0
 17 18  1  0  0  0  0
 17 38  1  0  0  0  0
 18 19  2  0  0  0  0
 18 39  1  0  0  0  0
 19 40  1  0  0  0  0
M  END
$$$$