35871044 35871043
 OpenBabel01161410103D

 43 44  0  0  0  0  0  0  0  0999 V2000
   -1.4873    0.8908    6.3185 C   0  0  0  0  0  0  0  0  0  0  0  0
   -0.7247    2.1028    5.7827 C   0  0  0  0  0  0  0  0  0  0  0  0
   -1.0286    2.5198    4.3998 N   0  0  0  0  0  0  0  0  0  0  0  0
   -0.5213    1.5120    3.4363 C   0  0  0  0  0  0  0  0  0  0  0  0
   -0.6663    1.8285    1.9302 C   0  0  0  0  0  0  0  0  0  0  0  0
    0.0368    3.0569    1.5229 N   0  0  0  0  0  0  0  0  0  0  0  0
   -0.3092    3.3190    0.1242 N   0  0  0  0  0  0  0  0  0  0  0  0
    0.3079    4.5698   -0.3635 C   0  0  0  0  0  0  0  0  0  0  0  0
    0.0328    4.6023   -1.8511 C   0  0  0  0  0  0  0  0  0  0  0  0
    1.0098    5.2407   -2.8087 C   0  0  0  0  0  0  0  0  0  0  0  0
    0.8344    3.7511   -2.8096 C   0  0  0  0  0  0  0  0  0  0  0  0
   -0.3340    5.7538    0.3181 C   0  0  0  0  0  0  0  0  0  0  0  0
    0.4110    6.5172    1.3891 C   0  0  0  0  0  0  0  0  0  0  0  0
    0.1517    7.1619    0.0575 C   0  0  0  0  0  0  0  0  0  0  0  0
   -2.4466    2.8485    4.1748 C   0  0  0  0  0  0  0  0  0  0  0  0
   -3.0232    3.8664    5.1557 C   0  0  0  0  0  0  0  0  0  0  0  0
   -1.1740    0.6830    7.3466 H   0  0  0  0  0  0  0  0  0  0  0  0
   -1.2903   -0.0089    5.7308 H   0  0  0  0  0  0  0  0  0  0  0  0
   -2.5680    1.0633    6.3353 H   0  0  0  0  0  0  0  0  0  0  0  0
    0.3525    1.8987    5.8639 H   0  0  0  0  0  0  0  0  0  0  0  0
   -0.8884    2.9509    6.4607 H   0  0  0  0  0  0  0  0  0  0  0  0
   -1.0153    0.5479    3.6065 H   0  0  0  0  0  0  0  0  0  0  0  0
    0.5477    1.3577    3.6311 H   0  0  0  0  0  0  0  0  0  0  0  0
   -1.7325    1.8883    1.6708 H   0  0  0  0  0  0  0  0  0  0  0  0
   -0.2524    0.9807    1.3687 H   0  0  0  0  0  0  0  0  0  0  0  0
   -0.2878    3.8091    2.1431 H   0  0  0  0  0  0  0  0  0  0  0  0
    0.0601    2.5642   -0.4631 H   0  0  0  0  0  0  0  0  0  0  0  0
    1.3919    4.5485   -0.1862 H   0  0  0  0  0  0  0  0  0  0  0  0
   -1.0270    4.7245   -2.0676 H   0  0  0  0  0  0  0  0  0  0  0  0
    1.9408    5.6392   -2.4169 H   0  0  0  0  0  0  0  0  0  0  0  0
    0.6059    5.8034   -3.6436 H   0  0  0  0  0  0  0  0  0  0  0  0
    0.3090    3.3010   -3.6454 H   0  0  0  0  0  0  0  0  0  0  0  0
    1.6466    3.1474   -2.4190 H   0  0  0  0  0  0  0  0  0  0  0  0
   -1.4055    5.6291    0.4331 H   0  0  0  0  0  0  0  0  0  0  0  0
    1.4286    6.2276    1.6185 H   0  0  0  0  0  0  0  0  0  0  0  0
   -0.1547    6.8671    2.2448 H   0  0  0  0  0  0  0  0  0  0  0  0
   -0.5943    7.9466    0.0066 H   0  0  0  0  0  0  0  0  0  0  0  0
    0.9934    7.3104   -0.6081 H   0  0  0  0  0  0  0  0  0  0  0  0
   -3.0683    1.9445    4.1844 H   0  0  0  0  0  0  0  0  0  0  0  0
   -2.5530    3.2971    3.1795 H   0  0  0  0  0  0  0  0  0  0  0  0
   -3.1286    3.4521    6.1628 H   0  0  0  0  0  0  0  0  0  0  0  0
   -4.0196    4.1770    4.8268 H   0  0  0  0  0  0  0  0  0  0  0  0
   -2.3946    4.7635    5.2127 H   0  0  0  0  0  0  0  0  0  0  0  0
  1  2  1  0  0  0  0
  1 17  1  0  0  0  0
  1 18  1  0  0  0  0
  1 19  1  0  0  0  0
  2  3  1  0  0  0  0
  2 20  1  0  0  0  0
  2 21  1  0  0  0  0
  3 15  1  0  0  0  0
  3  4  1  0  0  0  0
  4  5  1  0  0  0  0
  4 22  1  0  0  0  0
  4 23  1  0  0  0  0
  5  6  1  0  0  0  0
  5 24  1  0  0  0  0
  5 25  1  0  0  0  0
  6  7  1  0  0  0  0
  6 26  1  0  0  0  0
  7  8  1  0  0  0  0
  7 27  1  0  0  0  0
  8 12  1  0  0  0  0
  8  9  1  0  0  0  0
  8 28  1  0  0  0  0
  9 11  1  0  0  0  0
  9 10  1  0  0  0  0
  9 29  1  0  0  0  0
 10 11  1  0  0  0  0
 10 30  1  0  0  0  0
 10 31  1  0  0  0  0
 11 32  1  0  0  0  0
 11 33  1  0  0  0  0
 12 14  1  0  0  0  0
 12 13  1  0  0  0  0
 12 34  1  0  0  0  0
 13 14  1  0  0  0  0
 13 35  1  0  0  0  0
 13 36  1  0  0  0  0
 14 37  1  0  0  0  0
 14 38  1  0  0  0  0
 15 16  1  0  0  0  0
 15 39  1  0  0  0  0
 15 40  1  0  0  0  0
 16 41  1  0  0  0  0
 16 42  1  0  0  0  0
 16 43  1  0  0  0  0
M  END
$$$$