37856571 37856570
 OpenBabel01161410453D

 27 28  0  0  1  0  0  0  0  0999 V2000
    2.2387    0.6401    1.4731 O   0  0  0  0  0  0  0  0  0  0  0  0
    2.1575   -0.1386    0.2686 C   0  0  3  0  0  0  0  0  0  0  0  0
    2.7536    0.6312   -0.9041 C   0  0  0  0  0  0  0  0  0  0  0  0
    1.9377    0.8941   -1.9499 N   0  0  0  0  0  0  0  0  0  0  0  0
    2.4804    1.5666   -2.9814 C   0  0  0  0  0  0  0  0  0  0  0  0
    3.7911    1.9762   -3.0179 C   0  0  0  0  0  0  0  0  0  0  0  0
    4.5435    1.6504   -1.9151 C   0  0  0  0  0  0  0  0  0  0  0  0
    4.0590    0.9764   -0.8571 N   0  0  0  0  0  0  0  0  0  0  0  0
    2.8505   -1.4943    0.4774 C   0  0  0  0  0  0  0  0  0  0  0  0
    2.2415   -2.3228    1.6117 C   0  0  0  0  0  0  0  0  0  0  0  0
    2.7820   -3.7168    1.3411 C   0  0  0  0  0  0  0  0  0  0  0  0
    2.7118   -3.8554   -0.1733 C   0  0  0  0  0  0  0  0  0  0  0  0
    2.7694   -2.4331   -0.7348 C   0  0  0  0  0  0  0  0  0  0  0  0
    1.6771    0.2044    2.1331 H   0  0  0  0  0  0  0  0  0  0  0  0
    1.0900   -0.2935    0.0668 H   0  0  0  0  0  0  0  0  0  0  0  0
    1.8047    1.7738   -3.8062 H   0  0  0  0  0  0  0  0  0  0  0  0
    4.2029    2.5187   -3.8561 H   0  0  0  0  0  0  0  0  0  0  0  0
    5.5904    1.9301   -1.8459 H   0  0  0  0  0  0  0  0  0  0  0  0
    3.9088   -1.3270    0.7250 H   0  0  0  0  0  0  0  0  0  0  0  0
    1.1461   -2.3223    1.5554 H   0  0  0  0  0  0  0  0  0  0  0  0
    2.5360   -1.9593    2.6010 H   0  0  0  0  0  0  0  0  0  0  0  0
    3.8242   -3.7872    1.6742 H   0  0  0  0  0  0  0  0  0  0  0  0
    2.2097   -4.4937    1.8559 H   0  0  0  0  0  0  0  0  0  0  0  0
    3.5241   -4.4807   -0.5575 H   0  0  0  0  0  0  0  0  0  0  0  0
    1.7673   -4.3286   -0.4670 H   0  0  0  0  0  0  0  0  0  0  0  0
    3.6366   -2.3021   -1.3911 H   0  0  0  0  0  0  0  0  0  0  0  0
    1.8727   -2.2423   -1.3360 H   0  0  0  0  0  0  0  0  0  0  0  0
  1  2  1  0  0  0  0
  1 14  1  0  0  0  0
  2  9  1  0  0  0  0
  2  3  1  0  0  0  0
  2 15  1  0  0  0  0
  3  4  2  0  0  0  0
  3  8  1  0  0  0  0
  4  5  1  0  0  0  0
  5  6  2  0  0  0  0
  5 16  1  0  0  0  0
  6  7  1  0  0  0  0
  6 17  1  0  0  0  0
  7  8  2  0  0  0  0
  7 18  1  0  0  0  0
  9 13  1  0  0  0  0
  9 10  1  0  0  0  0
  9 19  1  0  0  0  0
 10 11  1  0  0  0  0
 10 20  1  0  0  0  0
 10 21  1  0  0  0  0
 11 12  1  0  0  0  0
 11 22  1  0  0  0  0
 11 23  1  0  0  0  0
 12 13  1  0  0  0  0
 12 24  1  0  0  0  0
 12 25  1  0  0  0  0
 13 26  1  0  0  0  0
 13 27  1  0  0  0  0
M  END
$$$$