38170342 38170341
 OpenBabel01161410403D

 26 26  0  0  0  0  0  0  0  0999 V2000
    5.2886   -7.7324   -6.4825 C   0  0  0  0  0  0  0  0  0  0  0  0
    6.6292   -7.3709   -6.1822 O   0  0  0  0  0  0  0  0  0  0  0  0
    7.1040   -8.0412   -5.0138 C   0  0  0  0  0  0  0  0  0  0  0  0
    8.5610   -7.6631   -4.7471 C   0  0  0  0  0  0  0  0  0  0  0  0
    8.6154   -6.3440   -4.1909 O   0  0  0  0  0  0  0  0  0  0  0  0
    9.8858   -5.8364   -4.1096 C   0  0  0  0  0  0  0  0  0  0  0  0
   10.9546   -6.5641   -3.6020 C   0  0  0  0  0  0  0  0  0  0  0  0
   12.2128   -5.9605   -3.5002 C   0  0  0  0  0  0  0  0  0  0  0  0
   13.4174   -6.6799   -2.9539 C   0  0  0  0  0  0  0  0  0  0  0  0
   13.1451   -8.0440   -2.6615 O   0  0  0  0  0  0  0  0  0  0  0  0
   12.3351   -4.6305   -3.9133 C   0  0  0  0  0  0  0  0  0  0  0  0
   11.2104   -3.9769   -4.3917 C   0  0  0  0  0  0  0  0  0  0  0  0
    9.9917   -4.5469   -4.4863 N   0  0  0  0  0  0  0  0  0  0  0  0
    4.9497   -7.1322   -7.3318 H   0  0  0  0  0  0  0  0  0  0  0  0
    4.6311   -7.5341   -5.6291 H   0  0  0  0  0  0  0  0  0  0  0  0
    5.2356   -8.7904   -6.7592 H   0  0  0  0  0  0  0  0  0  0  0  0
    7.0390   -9.1228   -5.1797 H   0  0  0  0  0  0  0  0  0  0  0  0
    6.4782   -7.7637   -4.1585 H   0  0  0  0  0  0  0  0  0  0  0  0
    9.1381   -7.7056   -5.6795 H   0  0  0  0  0  0  0  0  0  0  0  0
    8.9594   -8.3803   -4.0206 H   0  0  0  0  0  0  0  0  0  0  0  0
   10.8173   -7.5863   -3.2734 H   0  0  0  0  0  0  0  0  0  0  0  0
   13.7661   -6.1932   -2.0367 H   0  0  0  0  0  0  0  0  0  0  0  0
   14.2244   -6.6568   -3.6930 H   0  0  0  0  0  0  0  0  0  0  0  0
   12.6721   -8.0579   -1.8123 H   0  0  0  0  0  0  0  0  0  0  0  0
   13.2838   -4.1072   -3.8620 H   0  0  0  0  0  0  0  0  0  0  0  0
   11.2613   -2.9436   -4.7191 H   0  0  0  0  0  0  0  0  0  0  0  0
  1  2  1  0  0  0  0
  1 14  1  0  0  0  0
  1 15  1  0  0  0  0
  1 16  1  0  0  0  0
  2  3  1  0  0  0  0
  3  4  1  0  0  0  0
  3 17  1  0  0  0  0
  3 18  1  0  0  0  0
  4  5  1  0  0  0  0
  4 19  1  0  0  0  0
  4 20  1  0  0  0  0
  5  6  1  0  0  0  0
  6  7  2  0  0  0  0
  6 13  1  0  0  0  0
  7  8  1  0  0  0  0
  7 21  1  0  0  0  0
  8 11  2  0  0  0  0
  8  9  1  0  0  0  0
  9 10  1  0  0  0  0
  9 22  1  0  0  0  0
  9 23  1  0  0  0  0
 10 24  1  0  0  0  0
 11 12  1  0  0  0  0
 11 25  1  0  0  0  0
 12 13  2  0  0  0  0
 12 26  1  0  0  0  0
M  END
$$$$