505769 505768
 OpenBabel01161410413D

 12 12  0  0  0  0  0  0  0  0999 V2000
    0.8873   -0.0534   -0.0866 Cl  0  0  0  0  0  0  0  0  0  0  0  0
    2.9000   -0.0120   -0.2533 Si  0  0  0  0  0  0  0  0  0  0  0  0
    3.4987    0.0484   -2.1836 Cl  0  0  0  0  0  0  0  0  0  0  0  0
    3.8020    1.1368    0.9088 C   0  0  0  0  0  0  0  0  0  0  0  0
    4.8337   -0.0125    1.1593 C   0  0  0  0  0  0  0  0  0  0  0  0
    3.8449   -1.1840    0.8494 C   0  0  0  0  0  0  0  0  0  0  0  0
    3.2222    1.4046    1.7971 H   0  0  0  0  0  0  0  0  0  0  0  0
    4.2269    2.0458    0.4771 H   0  0  0  0  0  0  0  0  0  0  0  0
    5.7011    0.0210    0.4802 H   0  0  0  0  0  0  0  0  0  0  0  0
    5.2452   -0.0307    2.1765 H   0  0  0  0  0  0  0  0  0  0  0  0
    4.3026   -2.0542    0.3723 H   0  0  0  0  0  0  0  0  0  0  0  0
    3.2760   -1.5186    1.7227 H   0  0  0  0  0  0  0  0  0  0  0  0
  1  2  1  0  0  0  0
  2  6  1  0  0  0  0
  2  4  1  0  0  0  0
  2  3  1  0  0  0  0
  4  5  1  0  0  0  0
  4  7  1  0  0  0  0
  4  8  1  0  0  0  0
  5  6  1  0  0  0  0
  5  9  1  0  0  0  0
  5 10  1  0  0  0  0
  6 11  1  0  0  0  0
  6 12  1  0  0  0  0
M  END
$$$$