1099704 1099703
 OpenBabel01161410083D

 28 28  0  0  0  0  0  0  0  0999 V2000
    2.0290   -1.2235   -0.7434 C   0  0  0  0  0  0  0  0  0  0  0  0
    2.3727   -0.0507    0.0578 N   0  0  0  0  0  0  0  0  0  0  0  0
    2.6768    1.0994   -0.7942 C   0  0  0  0  0  0  0  0  0  0  0  0
    1.7753    1.3163   -1.8769 O   0  0  0  0  0  0  0  0  0  0  0  0
    0.7440    2.2511   -1.6226 C   0  0  0  0  0  0  0  0  0  0  0  0
    1.3044    3.5743   -1.1033 C   0  0  0  0  0  0  0  0  0  0  0  0
    2.1132    3.2398    0.1492 C   0  0  0  0  0  0  0  0  0  0  0  0
    3.1127    2.2651   -0.0993 O   0  0  0  0  0  0  0  0  0  0  0  0
    0.1599    4.5343   -0.7553 C   0  0  0  0  0  0  0  0  0  0  0  0
    2.2096    4.2271   -2.1647 C   0  0  0  0  0  0  0  0  0  0  0  0
    1.3926    0.1707    1.1029 C   0  0  0  0  0  0  0  0  0  0  0  0
    1.9691   -2.1159   -0.1101 H   0  0  0  0  0  0  0  0  0  0  0  0
    2.8026   -1.4298   -1.4918 H   0  0  0  0  0  0  0  0  0  0  0  0
    1.0684   -1.1099   -1.2584 H   0  0  0  0  0  0  0  0  0  0  0  0
    3.5959    0.7924   -1.3076 H   0  0  0  0  0  0  0  0  0  0  0  0
    0.2047    2.4070   -2.5640 H   0  0  0  0  0  0  0  0  0  0  0  0
    0.0210    1.8170   -0.9250 H   0  0  0  0  0  0  0  0  0  0  0  0
    2.6194    4.1350    0.5288 H   0  0  0  0  0  0  0  0  0  0  0  0
    1.4588    2.8977    0.9568 H   0  0  0  0  0  0  0  0  0  0  0  0
   -0.5076    4.1004   -0.0022 H   0  0  0  0  0  0  0  0  0  0  0  0
   -0.4434    4.7664   -1.6397 H   0  0  0  0  0  0  0  0  0  0  0  0
    0.5447    5.4782   -0.3541 H   0  0  0  0  0  0  0  0  0  0  0  0
    3.0500    3.5840   -2.4449 H   0  0  0  0  0  0  0  0  0  0  0  0
    2.6265    5.1706   -1.7953 H   0  0  0  0  0  0  0  0  0  0  0  0
    1.6449    4.4482   -3.0771 H   0  0  0  0  0  0  0  0  0  0  0  0
    1.2544   -0.7405    1.6970 H   0  0  0  0  0  0  0  0  0  0  0  0
    0.4114    0.4602    0.7186 H   0  0  0  0  0  0  0  0  0  0  0  0
    1.7395    0.9253    1.8145 H   0  0  0  0  0  0  0  0  0  0  0  0
  1  2  1  0  0  0  0
  1 12  1  0  0  0  0
  1 13  1  0  0  0  0
  1 14  1  0  0  0  0
  2 11  1  0  0  0  0
  2  3  1  0  0  0  0
  3  8  1  0  0  0  0
  3  4  1  0  0  0  0
  3 15  1  0  0  0  0
  4  5  1  0  0  0  0
  5  6  1  0  0  0  0
  5 16  1  0  0  0  0
  5 17  1  0  0  0  0
  6  7  1  0  0  0  0
  6 10  1  0  0  0  0
  6  9  1  0  0  0  0
  7  8  1  0  0  0  0
  7 18  1  0  0  0  0
  7 19  1  0  0  0  0
  9 20  1  0  0  0  0
  9 21  1  0  0  0  0
  9 22  1  0  0  0  0
 10 23  1  0  0  0  0
 10 24  1  0  0  0  0
 10 25  1  0  0  0  0
 11 26  1  0  0  0  0
 11 27  1  0  0  0  0
 11 28  1  0  0  0  0
M  END
$$$$