17394110 17394109
 OpenBabel01161410593D

 17 17  0  0  0  0  0  0  0  0999 V2000
    7.7089   -2.2046    4.3003 Cl  0  0  0  0  0  0  0  0  0  0  0  0
    5.6939   -1.9645    4.2125 S   0  0  0  0  0  0  0  0  0  0  0  0
    5.2505   -3.5000    4.6767 O   0  0  0  0  0  0  0  0  0  0  0  0
    5.0455   -4.3479    3.5180 O   0  0  0  0  0  0  0  0  0  0  0  0
    5.6609   -5.5297    3.7408 C   0  0  0  0  0  0  0  0  0  0  0  0
    6.2743   -6.1084    4.8816 C   0  0  0  0  0  0  0  0  0  0  0  0
    6.4525   -5.5752    6.2512 C   0  0  0  0  0  0  0  0  0  0  0  0
    6.7336   -7.3376    4.5966 N   0  0  0  0  0  0  0  0  0  0  0  0
    6.4197   -7.5666    3.2716 O   0  0  0  0  0  0  0  0  0  0  0  0
    5.7749   -6.4841    2.7619 C   0  0  0  0  0  0  0  0  0  0  0  0
    5.3732   -6.5721    1.3479 C   0  0  0  0  0  0  0  0  0  0  0  0
    5.4938   -5.2547    6.6707 H   0  0  0  0  0  0  0  0  0  0  0  0
    7.1377   -4.7218    6.2454 H   0  0  0  0  0  0  0  0  0  0  0  0
    6.8710   -6.3297    6.9254 H   0  0  0  0  0  0  0  0  0  0  0  0
    4.7231   -5.7377    1.0669 H   0  0  0  0  0  0  0  0  0  0  0  0
    4.8295   -7.5027    1.1576 H   0  0  0  0  0  0  0  0  0  0  0  0
    6.2549   -6.5498    0.6998 H   0  0  0  0  0  0  0  0  0  0  0  0
  1  2  1  0  0  0  0
  2  3  1  0  0  0  0
  3  4  1  0  0  0  0
  4  5  1  0  0  0  0
  5 10  2  0  0  0  0
  5  6  1  0  0  0  0
  6  8  2  0  0  0  0
  6  7  1  0  0  0  0
  7 12  1  0  0  0  0
  7 13  1  0  0  0  0
  7 14  1  0  0  0  0
  8  9  1  0  0  0  0
  9 10  1  0  0  0  0
 10 11  1  0  0  0  0
 11 15  1  0  0  0  0
 11 16  1  0  0  0  0
 11 17  1  0  0  0  0
M  END
$$$$