489846 489845
 OpenBabel01161410463D

 13 12  0  0  0  0  0  0  0  0999 V2000
    4.3089    0.9781    2.0909 C   0  0  0  0  0  0  0  0  0  0  0  0
    3.7489   -0.4996    1.2054 S   0  0  0  0  0  0  0  0  0  0  0  0
    4.3864   -0.1192   -0.4488 C   0  0  0  0  0  0  0  0  0  0  0  0
    6.1967   -0.1308   -0.5515 S   0  0  0  0  0  0  0  0  0  0  0  0
    6.4981   -1.9022   -0.3300 C   0  0  0  0  0  0  0  0  0  0  0  0
    3.8722    0.9754    3.0930 H   0  0  0  0  0  0  0  0  0  0  0  0
    3.9814    1.8841    1.5751 H   0  0  0  0  0  0  0  0  0  0  0  0
    5.3956    0.9807    2.1949 H   0  0  0  0  0  0  0  0  0  0  0  0
    4.0202    0.8653   -0.7544 H   0  0  0  0  0  0  0  0  0  0  0  0
    3.9830   -0.8454   -1.1602 H   0  0  0  0  0  0  0  0  0  0  0  0
    7.5629   -2.1006   -0.4792 H   0  0  0  0  0  0  0  0  0  0  0  0
    5.9337   -2.4834   -1.0639 H   0  0  0  0  0  0  0  0  0  0  0  0
    6.2326   -2.2207    0.6803 H   0  0  0  0  0  0  0  0  0  0  0  0
  1  2  1  0  0  0  0
  1  6  1  0  0  0  0
  1  7  1  0  0  0  0
  1  8  1  0  0  0  0
  2  3  1  0  0  0  0
  3  4  1  0  0  0  0
  3  9  1  0  0  0  0
  3 10  1  0  0  0  0
  4  5  1  0  0  0  0
  5 11  1  0  0  0  0
  5 12  1  0  0  0  0
  5 13  1  0  0  0  0
M  END
$$$$