36725736 36725735
 OpenBabel01161409553D

 25 25  0  0  0  0  0  0  0  0999 V2000
    0.6376    0.5510    1.3014 C   0  0  0  0  0  0  0  0  0  0  0  0
    1.3349    0.7447   -0.0459 C   0  0  0  0  0  0  0  0  0  0  0  0
    1.8909    2.0957   -0.0698 N   0  0  0  0  0  0  0  0  0  0  0  0
    2.2200    2.7631   -1.2617 C   0  0  0  0  0  0  0  0  0  0  0  0
    1.8715    2.3125   -2.5362 C   0  0  0  0  0  0  0  0  0  0  0  0
    2.2311    3.0487   -3.6637 C   0  0  0  0  0  0  0  0  0  0  0  0
    1.9092    2.5860   -4.8790 F   0  0  0  0  0  0  0  0  0  0  0  0
    2.9303    4.2431   -3.5552 C   0  0  0  0  0  0  0  0  0  0  0  0
    3.2517    4.7322   -2.2926 C   0  0  0  0  0  0  0  0  0  0  0  0
    2.8384    4.0386   -1.1488 C   0  0  0  0  0  0  0  0  0  0  0  0
    3.2104    4.5194    0.1322 N   0  0  0  0  0  0  0  0  0  0  0  0
    2.4349   -0.2985   -0.2238 C   0  0  0  0  0  0  0  0  0  0  0  0
    0.1749   -0.4396    1.3636 H   0  0  0  0  0  0  0  0  0  0  0  0
   -0.1497    1.3011    1.4406 H   0  0  0  0  0  0  0  0  0  0  0  0
    1.3407    0.6534    2.1365 H   0  0  0  0  0  0  0  0  0  0  0  0
    0.5715    0.6190   -0.8204 H   0  0  0  0  0  0  0  0  0  0  0  0
    2.6525    2.2291    0.5983 H   0  0  0  0  0  0  0  0  0  0  0  0
    1.3447    1.3804   -2.6943 H   0  0  0  0  0  0  0  0  0  0  0  0
    3.2154    4.7849   -4.4516 H   0  0  0  0  0  0  0  0  0  0  0  0
    3.8008    5.6644   -2.2036 H   0  0  0  0  0  0  0  0  0  0  0  0
    2.5085    4.2211    0.8101 H   0  0  0  0  0  0  0  0  0  0  0  0
    3.3191    5.5284    0.1464 H   0  0  0  0  0  0  0  0  0  0  0  0
    3.1967   -0.2137    0.5607 H   0  0  0  0  0  0  0  0  0  0  0  0
    2.9422   -0.1856   -1.1874 H   0  0  0  0  0  0  0  0  0  0  0  0
    2.0189   -1.3108   -0.1817 H   0  0  0  0  0  0  0  0  0  0  0  0
  1  2  1  0  0  0  0
  1 13  1  0  0  0  0
  1 14  1  0  0  0  0
  1 15  1  0  0  0  0
  2 12  1  0  0  0  0
  2  3  1  0  0  0  0
  2 16  1  0  0  0  0
  3  4  1  0  0  0  0
  3 17  1  0  0  0  0
  4  5  2  0  0  0  0
  4 10  1  0  0  0  0
  5  6  1  0  0  0  0
  5 18  1  0  0  0  0
  6  8  2  0  0  0  0
  6  7  1  0  0  0  0
  8  9  1  0  0  0  0
  8 19  1  0  0  0  0
  9 10  2  0  0  0  0
  9 20  1  0  0  0  0
 10 11  1  0  0  0  0
 11 21  1  0  0  0  0
 11 22  1  0  0  0  0
 12 23  1  0  0  0  0
 12 24  1  0  0  0  0
 12 25  1  0  0  0  0
M  END
$$$$