43446594 43446593
 OpenBabel01161410223D

 11 11  0  0  0  0  0  0  0  0999 V2000
   -2.0061    0.8294    0.1832 S   0  0  0  0  0  0  0  0  0  0  0  0
   -1.8118   -0.9168   -0.2564 C   0  0  0  0  0  0  0  0  0  0  0  0
   -0.3972   -1.7414    0.5373 S   0  0  0  0  0  0  0  0  0  0  0  0
    1.1387   -1.3545   -0.7757 S   0  0  0  0  0  0  0  0  0  0  0  0
    2.0396    0.0585   -0.0753 C   0  0  0  0  0  0  0  0  0  0  0  0
    1.1274    1.5042    0.5269 S   0  0  0  0  0  0  0  0  0  0  0  0
   -0.4373    1.7462   -0.7721 S   0  0  0  0  0  0  0  0  0  0  0  0
   -1.7959   -1.0504   -1.3426 H   0  0  0  0  0  0  0  0  0  0  0  0
   -2.7095   -1.4288    0.1037 H   0  0  0  0  0  0  0  0  0  0  0  0
    2.6545   -0.3129    0.7501 H   0  0  0  0  0  0  0  0  0  0  0  0
    2.7372    0.4081   -0.8428 H   0  0  0  0  0  0  0  0  0  0  0  0
  1  7  1  0  0  0  0
  1  2  1  0  0  0  0
  2  3  1  0  0  0  0
  2  8  1  0  0  0  0
  2  9  1  0  0  0  0
  3  4  1  0  0  0  0
  4  5  1  0  0  0  0
  5  6  1  0  0  0  0
  5 10  1  0  0  0  0
  5 11  1  0  0  0  0
  6  7  1  0  0  0  0
M  END
$$$$