36787336 36787335
 OpenBabel01161410593D

 35 36  0  0  0  0  0  0  0  0999 V2000
    0.6804    0.6335   -1.9270 C   0  0  0  0  0  0  0  0  0  0  0  0
    1.2574   -0.4343   -1.1854 O   0  0  0  0  0  0  0  0  0  0  0  0
    2.4276   -0.9734   -1.6560 C   0  0  0  0  0  0  0  0  0  0  0  0
    3.0298   -0.5997   -2.8641 C   0  0  0  0  0  0  0  0  0  0  0  0
    4.2114   -1.2089   -3.2908 C   0  0  0  0  0  0  0  0  0  0  0  0
    4.8031   -2.1997   -2.5173 C   0  0  0  0  0  0  0  0  0  0  0  0
    4.2182   -2.5827   -1.3112 C   0  0  0  0  0  0  0  0  0  0  0  0
    3.0276   -1.9764   -0.8611 C   0  0  0  0  0  0  0  0  0  0  0  0
    2.2549   -2.5489    0.8071 Si  0  0  0  0  0  0  0  0  0  0  0  0
    0.5274   -3.2178    0.5172 C   0  0  0  0  0  0  0  0  0  0  0  0
    0.5288   -4.3447   -0.3996 N   0  0  0  0  0  0  0  0  0  0  0  0
    0.3235   -4.2811   -1.7490 C   0  0  0  0  0  0  0  0  0  0  0  0
    0.3211   -5.4785   -2.2912 N   0  0  0  0  0  0  0  0  0  0  0  0
    0.5176   -6.3469   -1.2497 C   0  0  0  0  0  0  0  0  0  0  0  0
    0.6310   -5.6660   -0.0598 C   0  0  0  0  0  0  0  0  0  0  0  0
    3.3258   -3.8577    1.6333 C   0  0  0  0  0  0  0  0  0  0  0  0
    2.1619   -1.0650    1.9698 C   0  0  0  0  0  0  0  0  0  0  0  0
   -0.2092    0.9717   -1.3867 H   0  0  0  0  0  0  0  0  0  0  0  0
    0.3583    0.2951   -2.9173 H   0  0  0  0  0  0  0  0  0  0  0  0
    1.3672    1.4836   -1.9997 H   0  0  0  0  0  0  0  0  0  0  0  0
    2.6011    0.1609   -3.5077 H   0  0  0  0  0  0  0  0  0  0  0  0
    4.6651   -0.9135   -4.2333 H   0  0  0  0  0  0  0  0  0  0  0  0
    5.7173   -2.6810   -2.8543 H   0  0  0  0  0  0  0  0  0  0  0  0
    4.7066   -3.3677   -0.7381 H   0  0  0  0  0  0  0  0  0  0  0  0
   -0.1364   -2.4526    0.1011 H   0  0  0  0  0  0  0  0  0  0  0  0
    0.0828   -3.5610    1.4579 H   0  0  0  0  0  0  0  0  0  0  0  0
    0.1864   -3.3479   -2.2810 H   0  0  0  0  0  0  0  0  0  0  0  0
    0.5594   -7.4164   -1.4107 H   0  0  0  0  0  0  0  0  0  0  0  0
    0.7779   -6.0046    0.9558 H   0  0  0  0  0  0  0  0  0  0  0  0
    4.3221   -3.4609    1.8509 H   0  0  0  0  0  0  0  0  0  0  0  0
    3.4375   -4.7385    0.9944 H   0  0  0  0  0  0  0  0  0  0  0  0
    2.8737   -4.1768    2.5775 H   0  0  0  0  0  0  0  0  0  0  0  0
    3.1547   -0.6291    2.1149 H   0  0  0  0  0  0  0  0  0  0  0  0
    1.7749   -1.3731    2.9458 H   0  0  0  0  0  0  0  0  0  0  0  0
    1.4995   -0.2928    1.5685 H   0  0  0  0  0  0  0  0  0  0  0  0
  1  2  1  0  0  0  0
  1 18  1  0  0  0  0
  1 19  1  0  0  0  0
  1 20  1  0  0  0  0
  2  3  1  0  0  0  0
  3  4  2  0  0  0  0
  3  8  1  0  0  0  0
  4  5  1  0  0  0  0
  4 21  1  0  0  0  0
  5  6  2  0  0  0  0
  5 22  1  0  0  0  0
  6  7  1  0  0  0  0
  6 23  1  0  0  0  0
  7  8  2  0  0  0  0
  7 24  1  0  0  0  0
  8  9  1  0  0  0  0
  9 17  1  0  0  0  0
  9 16  1  0  0  0  0
  9 10  1  0  0  0  0
 10 11  1  0  0  0  0
 10 25  1  0  0  0  0
 10 26  1  0  0  0  0
 11 12  1  0  0  0  0
 11 15  1  0  0  0  0
 12 13  2  0  0  0  0
 12 27  1  0  0  0  0
 13 14  1  0  0  0  0
 14 15  2  0  0  0  0
 14 28  1  0  0  0  0
 15 29  1  0  0  0  0
 16 30  1  0  0  0  0
 16 31  1  0  0  0  0
 16 32  1  0  0  0  0
 17 33  1  0  0  0  0
 17 34  1  0  0  0  0
 17 35  1  0  0  0  0
M  END
$$$$