37035667 37035666
 OpenBabel01161410193D

 28 29  0  0  0  0  0  0  0  0999 V2000
    1.0544    0.0800    0.1808 C   0  0  0  0  0  0  0  0  0  0  0  0
    2.5404    0.0426   -0.0211 C   0  0  0  0  0  0  0  0  0  0  0  0
    3.2890    1.2206   -0.0564 C   0  0  0  0  0  0  0  0  0  0  0  0
    4.6681    1.1658   -0.2423 C   0  0  0  0  0  0  0  0  0  0  0  0
    5.3089   -0.0675   -0.3908 C   0  0  0  0  0  0  0  0  0  0  0  0
    4.5914   -1.2753   -0.3433 C   0  0  0  0  0  0  0  0  0  0  0  0
    3.1993   -1.1914   -0.1480 C   0  0  0  0  0  0  0  0  0  0  0  0
    5.2709   -2.5823   -0.4933 C   0  0  0  0  0  0  0  0  0  0  0  0
    6.5283   -2.8262    0.0863 C   0  0  0  0  0  0  0  0  0  0  0  0
    7.1712   -4.0585   -0.0565 C   0  0  0  0  0  0  0  0  0  0  0  0
    6.5639   -5.0858   -0.7741 C   0  0  0  0  0  0  0  0  0  0  0  0
    5.3088   -4.8865   -1.3606 C   0  0  0  0  0  0  0  0  0  0  0  0
    4.6815   -3.6341   -1.2201 C   0  0  0  0  0  0  0  0  0  0  0  0
    4.6179   -5.9875   -2.1250 C   0  0  0  0  0  0  0  0  0  0  0  0
    3.4257   -6.3382   -1.5663 F   0  0  0  0  0  0  0  0  0  0  0  0
    4.3374   -5.6362   -3.4105 F   0  0  0  0  0  0  0  0  0  0  0  0
    5.3432   -7.1385   -2.2038 F   0  0  0  0  0  0  0  0  0  0  0  0
    0.6613    1.0967    0.0738 H   0  0  0  0  0  0  0  0  0  0  0  0
    0.8006   -0.2838    1.1815 H   0  0  0  0  0  0  0  0  0  0  0  0
    0.5543   -0.5449   -0.5676 H   0  0  0  0  0  0  0  0  0  0  0  0
    2.8047    2.1875    0.0559 H   0  0  0  0  0  0  0  0  0  0  0  0
    5.2479    2.0846   -0.2767 H   0  0  0  0  0  0  0  0  0  0  0  0
    6.3838   -0.0716   -0.5568 H   0  0  0  0  0  0  0  0  0  0  0  0
    2.6069   -2.1030   -0.0831 H   0  0  0  0  0  0  0  0  0  0  0  0
    7.0203   -2.0536    0.6738 H   0  0  0  0  0  0  0  0  0  0  0  0
    8.1457   -4.2164    0.4016 H   0  0  0  0  0  0  0  0  0  0  0  0
    7.0735   -6.0429   -0.8705 H   0  0  0  0  0  0  0  0  0  0  0  0
    3.7139   -3.4824   -1.7008 H   0  0  0  0  0  0  0  0  0  0  0  0
  1  2  1  0  0  0  0
  1 18  1  0  0  0  0
  1 19  1  0  0  0  0
  1 20  1  0  0  0  0
  2  3  2  0  0  0  0
  2  7  1  0  0  0  0
  3  4  1  0  0  0  0
  3 21  1  0  0  0  0
  4  5  2  0  0  0  0
  4 22  1  0  0  0  0
  5  6  1  0  0  0  0
  5 23  1  0  0  0  0
  6  7  2  0  0  0  0
  6  8  1  0  0  0  0
  7 24  1  0  0  0  0
  8  9  2  0  0  0  0
  8 13  1  0  0  0  0
  9 10  1  0  0  0  0
  9 25  1  0  0  0  0
 10 11  2  0  0  0  0
 10 26  1  0  0  0  0
 11 12  1  0  0  0  0
 11 27  1  0  0  0  0
 12 13  2  0  0  0  0
 12 14  1  0  0  0  0
 13 28  1  0  0  0  0
 14 17  1  0  0  0  0
 14 16  1  0  0  0  0
 14 15  1  0  0  0  0
M  END
$$$$