16647847 16647846
 OpenBabel01161410073D

 28 29  0  0  0  0  0  0  0  0999 V2000
    3.7123    0.8323    2.8280 Cl  0  0  0  0  0  0  0  0  0  0  0  0
    4.8029    0.3632    1.5821 C   0  0  0  0  0  0  0  0  0  0  0  0
    5.7459    1.2738    1.1091 C   0  0  0  0  0  0  0  0  0  0  0  0
    6.6352    0.8900    0.1016 C   0  0  0  0  0  0  0  0  0  0  0  0
    6.5843   -0.4044   -0.4304 C   0  0  0  0  0  0  0  0  0  0  0  0
    5.6283   -1.3073    0.0466 C   0  0  0  0  0  0  0  0  0  0  0  0
    4.7391   -0.9249    1.0554 C   0  0  0  0  0  0  0  0  0  0  0  0
    7.7238   -0.9196   -1.7046 S   0  0  0  0  0  0  0  0  0  0  0  0
    9.1597   -0.6296   -0.9080 N   0  0  0  0  0  0  0  0  0  0  0  0
   10.4258   -0.8197   -1.5262 C   0  0  0  0  0  0  0  0  0  0  0  0
   10.6278   -0.6636   -2.9078 C   0  0  0  0  0  0  0  0  0  0  0  0
   11.9042   -0.7922   -3.4828 C   0  0  0  0  0  0  0  0  0  0  0  0
   12.0900   -0.6626   -4.9666 C   0  0  0  0  0  0  0  0  0  0  0  0
   12.9998   -1.0826   -2.6641 C   0  0  0  0  0  0  0  0  0  0  0  0
   12.8314   -1.2120   -1.2875 C   0  0  0  0  0  0  0  0  0  0  0  0
   11.5605   -1.0693   -0.7262 C   0  0  0  0  0  0  0  0  0  0  0  0
   11.4067   -1.2362    0.9921 Cl  0  0  0  0  0  0  0  0  0  0  0  0
    5.7961    2.2796    1.5174 H   0  0  0  0  0  0  0  0  0  0  0  0
    7.3694    1.6043   -0.2638 H   0  0  0  0  0  0  0  0  0  0  0  0
    5.5717   -2.3156   -0.3574 H   0  0  0  0  0  0  0  0  0  0  0  0
    4.0037   -1.6352    1.4235 H   0  0  0  0  0  0  0  0  0  0  0  0
    9.2000   -0.9642    0.0573 H   0  0  0  0  0  0  0  0  0  0  0  0
    9.7868   -0.4272   -3.5558 H   0  0  0  0  0  0  0  0  0  0  0  0
   11.2434   -0.1462   -5.4311 H   0  0  0  0  0  0  0  0  0  0  0  0
   12.1836   -1.6547   -5.4199 H   0  0  0  0  0  0  0  0  0  0  0  0
   12.9902   -0.0801   -5.1908 H   0  0  0  0  0  0  0  0  0  0  0  0
   13.9924   -1.1998   -3.0947 H   0  0  0  0  0  0  0  0  0  0  0  0
   13.6914   -1.4227   -0.6577 H   0  0  0  0  0  0  0  0  0  0  0  0
  1  2  1  0  0  0  0
  2  3  2  0  0  0  0
  2  7  1  0  0  0  0
  3  4  1  0  0  0  0
  3 18  1  0  0  0  0
  4  5  2  0  0  0  0
  4 19  1  0  0  0  0
  5  6  1  0  0  0  0
  5  8  1  0  0  0  0
  6  7  2  0  0  0  0
  6 20  1  0  0  0  0
  7 21  1  0  0  0  0
  8  9  1  0  0  0  0
  9 10  1  0  0  0  0
  9 22  1  0  0  0  0
 10 11  2  0  0  0  0
 10 16  1  0  0  0  0
 11 12  1  0  0  0  0
 11 23  1  0  0  0  0
 12 14  2  0  0  0  0
 12 13  1  0  0  0  0
 13 24  1  0  0  0  0
 13 25  1  0  0  0  0
 13 26  1  0  0  0  0
 14 15  1  0  0  0  0
 14 27  1  0  0  0  0
 15 16  2  0  0  0  0
 15 28  1  0  0  0  0
 16 17  1  0  0  0  0
M  END
$$$$