478216 478215
 OpenBabel01161410473D

 29 30  0  0  0  0  0  0  0  0999 V2000
    1.5145    0.0536    0.1839 O   0  0  0  0  0  0  0  0  0  0  0  0
    0.8951   -0.4998    1.3433 C   0  0  0  0  0  0  0  0  0  0  0  0
    1.3699    0.1644    2.6115 C   0  0  0  0  0  0  0  0  0  0  0  0
    1.2477    1.5520    2.7716 C   0  0  0  0  0  0  0  0  0  0  0  0
    1.6724    2.1696    3.9487 C   0  0  0  0  0  0  0  0  0  0  0  0
    2.2238    1.4068    4.9764 C   0  0  0  0  0  0  0  0  0  0  0  0
    2.3508    0.0267    4.8283 C   0  0  0  0  0  0  0  0  0  0  0  0
    1.9241   -0.5933    3.6524 C   0  0  0  0  0  0  0  0  0  0  0  0
    2.8591   -0.3929    0.0143 C   0  0  0  0  0  0  0  0  0  0  0  0
    3.3782    0.1065   -1.3101 C   0  0  0  0  0  0  0  0  0  0  0  0
    3.8643   -0.7875   -2.2745 C   0  0  0  0  0  0  0  0  0  0  0  0
    4.3606   -0.3156   -3.4917 C   0  0  0  0  0  0  0  0  0  0  0  0
    4.3789    1.0523   -3.7557 C   0  0  0  0  0  0  0  0  0  0  0  0
    3.9009    1.9512   -2.8048 C   0  0  0  0  0  0  0  0  0  0  0  0
    3.4044    1.4810   -1.5876 C   0  0  0  0  0  0  0  0  0  0  0  0
    1.0414   -1.5864    1.3685 H   0  0  0  0  0  0  0  0  0  0  0  0
   -0.1841   -0.3313    1.2517 H   0  0  0  0  0  0  0  0  0  0  0  0
    0.8216    2.1550    1.9719 H   0  0  0  0  0  0  0  0  0  0  0  0
    1.5727    3.2458    4.0628 H   0  0  0  0  0  0  0  0  0  0  0  0
    2.5540    1.8882    5.8931 H   0  0  0  0  0  0  0  0  0  0  0  0
    2.7809   -0.5673    5.6305 H   0  0  0  0  0  0  0  0  0  0  0  0
    2.0279   -1.6715    3.5561 H   0  0  0  0  0  0  0  0  0  0  0  0
    2.8896   -1.4885    0.0436 H   0  0  0  0  0  0  0  0  0  0  0  0
    3.4976   -0.0051    0.8163 H   0  0  0  0  0  0  0  0  0  0  0  0
    3.8564   -1.8586   -2.0871 H   0  0  0  0  0  0  0  0  0  0  0  0
    4.7315   -1.0167   -4.2347 H   0  0  0  0  0  0  0  0  0  0  0  0
    4.7634    1.4184   -4.7040 H   0  0  0  0  0  0  0  0  0  0  0  0
    3.9104    3.0181   -3.0096 H   0  0  0  0  0  0  0  0  0  0  0  0
    3.0266    2.1884   -0.8521 H   0  0  0  0  0  0  0  0  0  0  0  0
  1  9  1  0  0  0  0
  1  2  1  0  0  0  0
  2  3  1  0  0  0  0
  2 16  1  0  0  0  0
  2 17  1  0  0  0  0
  3  4  2  0  0  0  0
  3  8  1  0  0  0  0
  4  5  1  0  0  0  0
  4 18  1  0  0  0  0
  5  6  2  0  0  0  0
  5 19  1  0  0  0  0
  6  7  1  0  0  0  0
  6 20  1  0  0  0  0
  7  8  2  0  0  0  0
  7 21  1  0  0  0  0
  8 22  1  0  0  0  0
  9 10  1  0  0  0  0
  9 23  1  0  0  0  0
  9 24  1  0  0  0  0
 10 11  2  0  0  0  0
 10 15  1  0  0  0  0
 11 12  1  0  0  0  0
 11 25  1  0  0  0  0
 12 13  2  0  0  0  0
 12 26  1  0  0  0  0
 13 14  1  0  0  0  0
 13 27  1  0  0  0  0
 14 15  2  0  0  0  0
 14 28  1  0  0  0  0
 15 29  1  0  0  0  0
M  END
$$$$