11489473 11489472
 OpenBabel01161410093D

 26 27  0  0  1  0  0  0  0  0999 V2000
    2.2746    1.4470   -0.3287 O   0  0  0  0  0  0  0  0  0  0  0  0
    2.6531    0.1565    0.1365 C   0  0  0  0  0  0  0  0  0  0  0  0
    3.1501    0.2389    1.5772 C   0  0  3  0  0  0  0  0  0  0  0  0
    4.4664   -0.4708    1.9000 C   0  0  0  0  0  0  0  0  0  0  0  0
    4.4680    1.0304    1.8546 C   0  0  0  0  0  0  0  0  0  0  0  0
    5.1891    1.6935    0.6984 C   0  0  0  0  0  0  0  0  0  0  0  0
    4.6275    1.8154    3.1372 C   0  0  0  0  0  0  0  0  0  0  0  0
    2.0326    0.2024    2.6888 C   0  0  0  0  0  0  0  0  0  0  0  0
    2.2099   -0.1256    4.0187 C   0  0  0  0  0  0  0  0  0  0  0  0
    0.9979   -0.0621    4.7694 C   0  0  0  0  0  0  0  0  0  0  0  0
   -0.0715    0.3041    3.9876 C   0  0  0  0  0  0  0  0  0  0  0  0
    0.3829    0.5470    2.3600 S   0  0  0  0  0  0  0  0  0  0  0  0
    1.8471    1.3186   -1.1909 H   0  0  0  0  0  0  0  0  0  0  0  0
    3.4248   -0.2330   -0.5354 H   0  0  0  0  0  0  0  0  0  0  0  0
    1.7982   -0.5233    0.0518 H   0  0  0  0  0  0  0  0  0  0  0  0
    4.9672   -1.0124    1.1026 H   0  0  0  0  0  0  0  0  0  0  0  0
    4.6023   -0.9641    2.8545 H   0  0  0  0  0  0  0  0  0  0  0  0
    5.1986    1.0818   -0.2085 H   0  0  0  0  0  0  0  0  0  0  0  0
    6.2361    1.8821    0.9609 H   0  0  0  0  0  0  0  0  0  0  0  0
    4.7195    2.6540    0.4611 H   0  0  0  0  0  0  0  0  0  0  0  0
    4.6067    1.1843    4.0277 H   0  0  0  0  0  0  0  0  0  0  0  0
    3.8439    2.5753    3.2179 H   0  0  0  0  0  0  0  0  0  0  0  0
    5.5929    2.3332    3.1593 H   0  0  0  0  0  0  0  0  0  0  0  0
    3.1537   -0.4143    4.4596 H   0  0  0  0  0  0  0  0  0  0  0  0
    0.9183   -0.2772    5.8275 H   0  0  0  0  0  0  0  0  0  0  0  0
   -1.1020    0.4336    4.2899 H   0  0  0  0  0  0  0  0  0  0  0  0
  1  2  1  0  0  0  0
  1 13  1  0  0  0  0
  2  3  1  0  0  0  0
  2 14  1  0  0  0  0
  2 15  1  0  0  0  0
  3  5  1  0  0  0  0
  3  4  1  0  0  0  0
  3  8  1  0  0  0  0
  4  5  1  0  0  0  0
  4 16  1  0  0  0  0
  4 17  1  0  0  0  0
  5  7  1  0  0  0  0
  5  6  1  0  0  0  0
  6 18  1  0  0  0  0
  6 19  1  0  0  0  0
  6 20  1  0  0  0  0
  7 21  1  0  0  0  0
  7 22  1  0  0  0  0
  7 23  1  0  0  0  0
  8  9  2  0  0  0  0
  8 12  1  0  0  0  0
  9 10  1  0  0  0  0
  9 24  1  0  0  0  0
 10 11  2  0  0  0  0
 10 25  1  0  0  0  0
 11 12  1  0  0  0  0
 11 26  1  0  0  0  0
M  END
$$$$