8666206 8666205
 OpenBabel01161410063D

 38 40  0  0  1  0  0  0  0  0999 V2000
    8.4020    2.4687   -9.6758 Cl  0  0  0  0  0  0  0  0  0  0  0  0
    7.8219    1.2110   -8.6592 C   0  0  0  0  0  0  0  0  0  0  0  0
    8.1151   -0.1138   -8.9653 C   0  0  0  0  0  0  0  0  0  0  0  0
    7.6225   -1.1369   -8.1487 C   0  0  0  0  0  0  0  0  0  0  0  0
    6.8058   -0.8570   -7.0342 C   0  0  0  0  0  0  0  0  0  0  0  0
    6.5185    0.4918   -6.7490 C   0  0  0  0  0  0  0  0  0  0  0  0
    7.0401    1.5177   -7.5508 C   0  0  0  0  0  0  0  0  0  0  0  0
    5.4359    0.9719   -5.4875 Cl  0  0  0  0  0  0  0  0  0  0  0  0
    6.2241   -1.9993   -6.3159 C   0  0  0  0  0  0  0  0  0  0  0  0
    5.5523   -2.9782   -7.0104 N   0  0  0  0  0  0  0  0  0  0  0  0
    5.3904   -3.0194   -8.0105 H   0  0  0  0  0  0  0  0  0  0  0  0
    5.0626   -3.9670   -6.2543 N   0  0  0  0  0  0  0  0  0  0  0  0
    5.4156   -3.6091   -5.0243 C   0  0  0  0  0  0  0  0  0  0  0  0
    6.1549   -2.3960   -4.9817 C   0  0  0  0  0  0  0  0  0  0  0  0
    6.6648   -1.7540   -3.7312 C   0  0  0  0  0  0  0  0  0  0  0  0
    7.7727   -2.5474   -3.2047 N   0  0  0  0  0  0  0  0  0  0  0  0
    8.1954   -2.1039   -1.8691 C   0  0  0  0  0  0  0  0  0  0  0  0
    7.2361   -2.4143   -0.6962 C   0  0  3  0  0  0  0  0  0  0  0  0
    6.9379   -3.8977   -0.4793 C   0  0  0  0  0  0  0  0  0  0  0  0
    7.6078   -4.2259    0.8334 C   0  0  0  0  0  0  0  0  0  0  0  0
    7.5961   -2.8995    1.5498 C   0  0  0  0  0  0  0  0  0  0  0  0
    7.8182   -1.9215    0.5295 O   0  0  0  0  0  0  0  0  0  0  0  0
    8.7172   -0.3598   -9.8380 H   0  0  0  0  0  0  0  0  0  0  0  0
    7.8736   -2.1641   -8.4058 H   0  0  0  0  0  0  0  0  0  0  0  0
    6.8078    2.5566   -7.3253 H   0  0  0  0  0  0  0  0  0  0  0  0
    5.1273   -4.2428   -4.1955 H   0  0  0  0  0  0  0  0  0  0  0  0
    5.8304   -1.7065   -3.0183 H   0  0  0  0  0  0  0  0  0  0  0  0
    7.0084   -0.7369   -3.9160 H   0  0  0  0  0  0  0  0  0  0  0  0
    7.5249   -3.5321   -3.1834 H   0  0  0  0  0  0  0  0  0  0  0  0
    8.4101   -1.0279   -1.8822 H   0  0  0  0  0  0  0  0  0  0  0  0
    9.1629   -2.5742   -1.6515 H   0  0  0  0  0  0  0  0  0  0  0  0
    6.2973   -1.8686   -0.8374 H   0  0  0  0  0  0  0  0  0  0  0  0
    7.2789   -4.5516   -1.2867 H   0  0  0  0  0  0  0  0  0  0  0  0
    5.8548   -4.0390   -0.3896 H   0  0  0  0  0  0  0  0  0  0  0  0
    7.1040   -5.0189    1.3933 H   0  0  0  0  0  0  0  0  0  0  0  0
    8.6423   -4.5405    0.6481 H   0  0  0  0  0  0  0  0  0  0  0  0
    6.6233   -2.7003    2.0138 H   0  0  0  0  0  0  0  0  0  0  0  0
    8.3740   -2.8240    2.3139 H   0  0  0  0  0  0  0  0  0  0  0  0
  1  2  1  0  0  0  0
  2  3  2  0  0  0  0
  2  7  1  0  0  0  0
  3  4  1  0  0  0  0
  3 23  1  0  0  0  0
  4  5  2  0  0  0  0
  4 24  1  0  0  0  0
  5  6  1  0  0  0  0
  5  9  1  0  0  0  0
  6  7  2  0  0  0  0
  6  8  1  0  0  0  0
  7 25  1  0  0  0  0
  9 10  1  0  0  0  0
  9 14  2  0  0  0  0
 10 12  1  0  0  0  0
 10 11  1  0  0  0  0
 12 13  2  0  0  0  0
 13 14  1  0  0  0  0
 13 26  1  0  0  0  0
 14 15  1  0  0  0  0
 15 16  1  0  0  0  0
 15 27  1  0  0  0  0
 15 28  1  0  0  0  0
 16 17  1  0  0  0  0
 16 29  1  0  0  0  0
 17 18  1  0  0  0  0
 17 30  1  0  0  0  0
 17 31  1  0  0  0  0
 18 22  1  0  0  0  0
 18 19  1  0  0  0  0
 18 32  1  0  0  0  0
 19 20  1  0  0  0  0
 19 33  1  0  0  0  0
 19 34  1  0  0  0  0
 20 21  1  0  0  0  0
 20 35  1  0  0  0  0
 20 36  1  0  0  0  0
 21 22  1  0  0  0  0
 21 37  1  0  0  0  0
 21 38  1  0  0  0  0
M  END
$$$$