498960 498959
 OpenBabel01161410473D

 22 21  0  0  0  0  0  0  0  0999 V2000
    3.2582   -2.2452   -0.5560 C   0  0  0  0  0  0  0  0  0  0  0  0
    2.9970   -0.8153   -0.0929 C   0  0  0  0  0  0  0  0  0  0  0  0
    3.6162    0.5143   -1.2373 P   0  0  0  0  0  0  0  0  0  0  0  0
    5.3891    0.0446   -1.5469 C   0  0  0  0  0  0  0  0  0  0  0  0
    6.0303    1.0194   -2.5419 C   0  0  0  0  0  0  0  0  0  0  0  0
    6.2052    0.0409   -0.2525 C   0  0  0  0  0  0  0  0  0  0  0  0
    2.7236   -0.0147   -3.0658 Cl  0  0  0  0  0  0  0  0  0  0  0  0
    1.5038   -0.6194    0.1859 C   0  0  0  0  0  0  0  0  0  0  0  0
    2.8777   -2.9602    0.1833 H   0  0  0  0  0  0  0  0  0  0  0  0
    4.3274   -2.4502   -0.6705 H   0  0  0  0  0  0  0  0  0  0  0  0
    2.7686   -2.4726   -1.5088 H   0  0  0  0  0  0  0  0  0  0  0  0
    3.5200   -0.6708    0.8593 H   0  0  0  0  0  0  0  0  0  0  0  0
    5.4270   -0.9581   -1.9874 H   0  0  0  0  0  0  0  0  0  0  0  0
    6.0267    2.0472   -2.1616 H   0  0  0  0  0  0  0  0  0  0  0  0
    5.5105    1.0181   -3.5055 H   0  0  0  0  0  0  0  0  0  0  0  0
    7.0717    0.7398   -2.7358 H   0  0  0  0  0  0  0  0  0  0  0  0
    6.1819    1.0167    0.2457 H   0  0  0  0  0  0  0  0  0  0  0  0
    7.2528   -0.2031   -0.4600 H   0  0  0  0  0  0  0  0  0  0  0  0
    5.8375   -0.7060    0.4574 H   0  0  0  0  0  0  0  0  0  0  0  0
    0.8945   -0.7762   -0.7118 H   0  0  0  0  0  0  0  0  0  0  0  0
    1.2928    0.3889    0.5617 H   0  0  0  0  0  0  0  0  0  0  0  0
    1.1586   -1.3298    0.9459 H   0  0  0  0  0  0  0  0  0  0  0  0
  1  2  1  0  0  0  0
  1  9  1  0  0  0  0
  1 10  1  0  0  0  0
  1 11  1  0  0  0  0
  2  8  1  0  0  0  0
  2  3  1  0  0  0  0
  2 12  1  0  0  0  0
  3  7  1  0  0  0  0
  3  4  1  0  0  0  0
  4  6  1  0  0  0  0
  4  5  1  0  0  0  0
  4 13  1  0  0  0  0
  5 14  1  0  0  0  0
  5 15  1  0  0  0  0
  5 16  1  0  0  0  0
  6 17  1  0  0  0  0
  6 18  1  0  0  0  0
  6 19  1  0  0  0  0
  8 20  1  0  0  0  0
  8 21  1  0  0  0  0
  8 22  1  0  0  0  0
M  END
$$$$