48573478 48573477
 OpenBabel01161410413D

 26 27  0  0  0  0  0  0  0  0999 V2000
    1.5448   -2.4862   -0.5133 C   0  0  0  0  0  0  0  0  0  0  0  0
    2.9681   -2.8523   -0.8947 C   0  0  0  0  0  0  0  0  0  0  0  0
    3.7963   -1.7193   -0.6409 O   0  0  0  0  0  0  0  0  0  0  0  0
    5.1325   -1.8563   -0.8937 C   0  0  0  0  0  0  0  0  0  0  0  0
    5.9043   -0.7375   -0.5853 C   0  0  0  0  0  0  0  0  0  0  0  0
    7.2887   -0.7461   -0.7862 C   0  0  0  0  0  0  0  0  0  0  0  0
    7.9415   -1.8687   -1.3158 C   0  0  0  0  0  0  0  0  0  0  0  0
    7.1465   -2.9858   -1.6196 C   0  0  0  0  0  0  0  0  0  0  0  0
    5.7601   -2.9853   -1.4139 C   0  0  0  0  0  0  0  0  0  0  0  0
    9.4365   -1.9085   -1.5204 C   0  0  0  0  0  0  0  0  0  0  0  0
    9.9860   -1.9377   -2.9287 C   0  0  0  0  0  0  0  0  0  0  0  0
   10.1873   -0.7219   -2.0757 C   0  0  0  0  0  0  0  0  0  0  0  0
    0.8645   -3.3231   -0.6951 H   0  0  0  0  0  0  0  0  0  0  0  0
    1.2017   -1.6198   -1.0886 H   0  0  0  0  0  0  0  0  0  0  0  0
    1.4887   -2.2086    0.5446 H   0  0  0  0  0  0  0  0  0  0  0  0
    2.9976   -3.1137   -1.9587 H   0  0  0  0  0  0  0  0  0  0  0  0
    3.2918   -3.7056   -0.2876 H   0  0  0  0  0  0  0  0  0  0  0  0
    5.4268    0.1510   -0.1788 H   0  0  0  0  0  0  0  0  0  0  0  0
    7.8627    0.1390   -0.5236 H   0  0  0  0  0  0  0  0  0  0  0  0
    7.6182   -3.8804   -2.0223 H   0  0  0  0  0  0  0  0  0  0  0  0
    5.2075   -3.8828   -1.6690 H   0  0  0  0  0  0  0  0  0  0  0  0
    9.9788   -2.5030   -0.7869 H   0  0  0  0  0  0  0  0  0  0  0  0
    9.2961   -1.8559   -3.7620 H   0  0  0  0  0  0  0  0  0  0  0  0
   10.8434   -2.5708   -3.1254 H   0  0  0  0  0  0  0  0  0  0  0  0
   11.1826   -0.5315   -1.6894 H   0  0  0  0  0  0  0  0  0  0  0  0
    9.6429    0.1749   -2.3469 H   0  0  0  0  0  0  0  0  0  0  0  0
  1  2  1  0  0  0  0
  1 13  1  0  0  0  0
  1 14  1  0  0  0  0
  1 15  1  0  0  0  0
  2  3  1  0  0  0  0
  2 16  1  0  0  0  0
  2 17  1  0  0  0  0
  3  4  1  0  0  0  0
  4  5  2  0  0  0  0
  4  9  1  0  0  0  0
  5  6  1  0  0  0  0
  5 18  1  0  0  0  0
  6  7  2  0  0  0  0
  6 19  1  0  0  0  0
  7  8  1  0  0  0  0
  7 10  1  0  0  0  0
  8  9  2  0  0  0  0
  8 20  1  0  0  0  0
  9 21  1  0  0  0  0
 10 12  1  0  0  0  0
 10 11  1  0  0  0  0
 10 22  1  0  0  0  0
 11 12  1  0  0  0  0
 11 23  1  0  0  0  0
 11 24  1  0  0  0  0
 12 25  1  0  0  0  0
 12 26  1  0  0  0  0
M  END
$$$$