48236132 48236131
 OpenBabel01161410403D

 44 47  0  0  0  0  0  0  0  0999 V2000
    2.5964    3.5247   -1.6249 C   0  0  0  0  0  0  0  0  0  0  0  0
    3.1856    2.6932   -0.5266 C   0  0  0  0  0  0  0  0  0  0  0  0
    4.5412    2.7288   -0.2781 C   0  0  0  0  0  0  0  0  0  0  0  0
    5.0094    1.9403    0.7472 C   0  0  0  0  0  0  0  0  0  0  0  0
    6.3328    1.9093    1.1460 N   0  0  0  0  0  0  0  0  0  0  0  0
    7.4433    2.0071    0.2025 C   0  0  0  0  0  0  0  0  0  0  0  0
    8.7168    2.3781    0.9791 C   0  0  0  0  0  0  0  0  0  0  0  0
    9.2417    1.2328    1.8454 C   0  0  0  0  0  0  0  0  0  0  0  0
    9.4345   -0.0558    1.0441 C   0  0  0  0  0  0  0  0  0  0  0  0
    8.1639   -0.4410    0.2812 C   0  0  0  0  0  0  0  0  0  0  0  0
    7.6337    0.7035   -0.5830 C   0  0  0  0  0  0  0  0  0  0  0  0
    9.7781   -1.1132    1.9537 O   0  0  0  0  0  0  0  0  0  0  0  0
   10.8970   -1.7621    1.3527 C   0  0  0  0  0  0  0  0  0  0  0  0
   11.5868   -0.6455    0.6196 C   0  0  0  0  0  0  0  0  0  0  0  0
   10.5042    0.1266    0.0981 O   0  0  0  0  0  0  0  0  0  0  0  0
    4.1831    1.1872    1.4877 N   0  0  0  0  0  0  0  0  0  0  0  0
    2.8631    1.2169    1.2084 C   0  0  0  0  0  0  0  0  0  0  0  0
    2.3396    1.9462    0.2043 N   0  0  0  0  0  0  0  0  0  0  0  0
    1.9051    0.4118    2.0562 C   0  0  0  0  0  0  0  0  0  0  0  0
    2.2474   -0.0182    3.4642 C   0  0  0  0  0  0  0  0  0  0  0  0
    1.2441    1.0746    3.2465 C   0  0  0  0  0  0  0  0  0  0  0  0
    1.5238    3.3312   -1.7284 H   0  0  0  0  0  0  0  0  0  0  0  0
    3.0769    3.2880   -2.5794 H   0  0  0  0  0  0  0  0  0  0  0  0
    2.7329    4.5885   -1.4072 H   0  0  0  0  0  0  0  0  0  0  0  0
    5.1904    3.3686   -0.8573 H   0  0  0  0  0  0  0  0  0  0  0  0
    6.4122    1.1912    1.8627 H   0  0  0  0  0  0  0  0  0  0  0  0
    7.2600    2.8224   -0.5062 H   0  0  0  0  0  0  0  0  0  0  0  0
    8.5316    3.2542    1.6130 H   0  0  0  0  0  0  0  0  0  0  0  0
    9.4961    2.6696    0.2632 H   0  0  0  0  0  0  0  0  0  0  0  0
   10.1956    1.5399    2.2924 H   0  0  0  0  0  0  0  0  0  0  0  0
    8.5613    1.0511    2.6864 H   0  0  0  0  0  0  0  0  0  0  0  0
    8.3684   -1.3027   -0.3672 H   0  0  0  0  0  0  0  0  0  0  0  0
    7.3911   -0.7706    0.9864 H   0  0  0  0  0  0  0  0  0  0  0  0
    8.3445    0.8880   -1.3991 H   0  0  0  0  0  0  0  0  0  0  0  0
    6.6951    0.3937   -1.0569 H   0  0  0  0  0  0  0  0  0  0  0  0
   11.5231   -2.2370    2.1120 H   0  0  0  0  0  0  0  0  0  0  0  0
   10.5197   -2.5257    0.6640 H   0  0  0  0  0  0  0  0  0  0  0  0
   12.1609   -0.0100    1.3025 H   0  0  0  0  0  0  0  0  0  0  0  0
   12.2388   -0.9926   -0.1856 H   0  0  0  0  0  0  0  0  0  0  0  0
    1.2838   -0.2754    1.4888 H   0  0  0  0  0  0  0  0  0  0  0  0
    3.2163    0.2530    3.8681 H   0  0  0  0  0  0  0  0  0  0  0  0
    1.8847   -0.9835    3.7972 H   0  0  0  0  0  0  0  0  0  0  0  0
    0.1984    0.8574    3.4272 H   0  0  0  0  0  0  0  0  0  0  0  0
    1.5375    2.0874    3.5010 H   0  0  0  0  0  0  0  0  0  0  0  0
  1  2  1  0  0  0  0
  1 22  1  0  0  0  0
  1 23  1  0  0  0  0
  1 24  1  0  0  0  0
  2 18  1  0  0  0  0
  2  3  2  0  0  0  0
  3  4  1  0  0  0  0
  3 25  1  0  0  0  0
  4 16  2  0  0  0  0
  4  5  1  0  0  0  0
  5  6  1  0  0  0  0
  5 26  1  0  0  0  0
  6 11  1  0  0  0  0
  6  7  1  0  0  0  0
  6 27  1  0  0  0  0
  7  8  1  0  0  0  0
  7 28  1  0  0  0  0
  7 29  1  0  0  0  0
  8  9  1  0  0  0  0
  8 30  1  0  0  0  0
  8 31  1  0  0  0  0
  9 10  1  0  0  0  0
  9 15  1  0  0  0  0
  9 12  1  0  0  0  0
 10 11  1  0  0  0  0
 10 32  1  0  0  0  0
 10 33  1  0  0  0  0
 11 34  1  0  0  0  0
 11 35  1  0  0  0  0
 12 13  1  0  0  0  0
 13 14  1  0  0  0  0
 13 36  1  0  0  0  0
 13 37  1  0  0  0  0
 14 15  1  0  0  0  0
 14 38  1  0  0  0  0
 14 39  1  0  0  0  0
 16 17  1  0  0  0  0
 17 18  2  0  0  0  0
 17 19  1  0  0  0  0
 19 21  1  0  0  0  0
 19 20  1  0  0  0  0
 19 40  1  0  0  0  0
 20 21  1  0  0  0  0
 20 41  1  0  0  0  0
 20 42  1  0  0  0  0
 21 43  1  0  0  0  0
 21 44  1  0  0  0  0
M  END
$$$$