44457213 44457212
 OpenBabel01151410453D

 38 41  0  0  1  0  0  0  0  0999 V2000
    1.0610   -0.0935    1.1496 C   0  0  0  0  0  0  0  0  0  0  0  0
    2.2196   -0.0775    0.8297 C   0  0  0  0  0  0  0  0  0  0  0  0
    3.5973   -0.0563    0.4484 C   0  0  0  0  0  0  0  0  0  0  0  0
    4.5338   -0.8049    1.1547 C   0  0  0  0  0  0  0  0  0  0  0  0
    5.8832   -0.7751    0.7825 C   0  0  0  0  0  0  0  0  0  0  0  0
    6.3310   -0.0126   -0.3143 C   0  0  0  0  0  0  0  0  0  0  0  0
    5.3652    0.7408   -1.0042 C   0  0  0  0  0  0  0  0  0  0  0  0
    4.0156    0.7203   -0.6284 C   0  0  0  0  0  0  0  0  0  0  0  0
    7.8232    0.0118   -0.6921 C   0  0  3  0  0  0  0  0  0  0  0  0
    8.6079    0.8272    0.3743 C   0  0  0  0  0  0  0  0  0  0  0  0
   10.1143    0.8521    0.0561 C   0  0  3  0  0  0  0  0  0  0  0  0
   10.6518   -0.5876    0.0298 C   0  0  0  0  0  0  0  0  0  0  0  0
    9.9265   -1.4020   -1.0543 C   0  0  3  0  0  0  0  0  0  0  0  0
    8.4197   -1.4294   -0.7435 C   0  0  0  0  0  0  0  0  0  0  0  0
   10.1502   -0.7458   -2.4221 C   0  0  0  0  0  0  0  0  0  0  0  0
    9.6096    0.6893   -2.4027 C   0  0  3  0  0  0  0  0  0  0  0  0
    8.1057    0.6664   -2.0808 C   0  0  0  0  0  0  0  0  0  0  0  0
   10.3385    1.4985   -1.3194 C   0  0  0  0  0  0  0  0  0  0  0  0
    0.0351   -0.1067    1.4326 H   0  0  0  0  0  0  0  0  0  0  0  0
    4.2262   -1.4123    2.0024 H   0  0  0  0  0  0  0  0  0  0  0  0
    6.5816   -1.3575    1.3786 H   0  0  0  0  0  0  0  0  0  0  0  0
    5.6312    1.3699   -1.8485 H   0  0  0  0  0  0  0  0  0  0  0  0
    3.2983    1.3196   -1.1842 H   0  0  0  0  0  0  0  0  0  0  0  0
    8.4612    0.3996    1.3748 H   0  0  0  0  0  0  0  0  0  0  0  0
    8.2248    1.8556    0.4205 H   0  0  0  0  0  0  0  0  0  0  0  0
   10.6418    1.4291    0.8239 H   0  0  0  0  0  0  0  0  0  0  0  0
   10.5114   -1.0581    1.0106 H   0  0  0  0  0  0  0  0  0  0  0  0
   11.7309   -0.5800   -0.1675 H   0  0  0  0  0  0  0  0  0  0  0  0
   10.3179   -2.4255   -1.0685 H   0  0  0  0  0  0  0  0  0  0  0  0
    7.8937   -2.0269   -1.5000 H   0  0  0  0  0  0  0  0  0  0  0  0
    8.2854   -1.9535    0.2098 H   0  0  0  0  0  0  0  0  0  0  0  0
   11.2196   -0.7413   -2.6662 H   0  0  0  0  0  0  0  0  0  0  0  0
    9.6475   -1.3272   -3.2047 H   0  0  0  0  0  0  0  0  0  0  0  0
    9.7696    1.1560   -3.3813 H   0  0  0  0  0  0  0  0  0  0  0  0
    7.7427    1.7019   -2.1021 H   0  0  0  0  0  0  0  0  0  0  0  0
    7.5708    0.1238   -2.8716 H   0  0  0  0  0  0  0  0  0  0  0  0
    9.9723    2.5325   -1.3125 H   0  0  0  0  0  0  0  0  0  0  0  0
   11.4115    1.5429   -1.5432 H   0  0  0  0  0  0  0  0  0  0  0  0
  1  2  3  0  0  0  0
  1 19  1  0  0  0  0
  2  3  1  0  0  0  0
  3  4  2  0  0  0  0
  3  8  1  0  0  0  0
  4  5  1  0  0  0  0
  4 20  1  0  0  0  0
  5  6  2  0  0  0  0
  5 21  1  0  0  0  0
  6  7  1  0  0  0  0
  6  9  1  0  0  0  0
  7  8  2  0  0  0  0
  7 22  1  0  0  0  0
  8 23  1  0  0  0  0
  9 10  1  0  0  0  0
  9 17  1  0  0  0  0
  9 14  1  0  0  0  0
 10 11  1  0  0  0  0
 10 24  1  0  0  0  0
 10 25  1  0  0  0  0
 11 18  1  0  0  0  0
 11 12  1  0  0  0  0
 11 26  1  0  0  0  0
 12 13  1  0  0  0  0
 12 27  1  0  0  0  0
 12 28  1  0  0  0  0
 13 14  1  0  0  0  0
 13 15  1  0  0  0  0
 13 29  1  0  0  0  0
 14 30  1  0  0  0  0
 14 31  1  0  0  0  0
 15 16  1  0  0  0  0
 15 32  1  0  0  0  0
 15 33  1  0  0  0  0
 16 17  1  0  0  0  0
 16 18  1  0  0  0  0
 16 34  1  0  0  0  0
 17 35  1  0  0  0  0
 17 36  1  0  0  0  0
 18 37  1  0  0  0  0
 18 38  1  0  0  0  0
M  END
$$$$