46467974 46467973
 OpenBabel01151410483D

 42 44  0  0  0  0  0  0  0  0999 V2000
    1.6085    7.2141    3.6394 C   0  0  0  0  0  0  0  0  0  0  0  0
    2.7378    7.4217    3.2917 C   0  0  0  0  0  0  0  0  0  0  0  0
    4.1198    7.7049    2.8552 C   0  0  0  0  0  0  0  0  0  0  0  0
    4.3906    7.3436    1.3686 C   0  0  0  0  0  0  0  0  0  0  0  0
    4.0718    5.8680    1.0326 C   0  0  0  0  0  0  0  0  0  0  0  0
    3.1185    5.6766    0.0819 N   0  0  0  0  0  0  0  0  0  0  0  0
    2.8351    4.4404   -0.4051 C   0  0  0  0  0  0  0  0  0  0  0  0
    3.4646    3.2940    0.1001 C   0  0  0  0  0  0  0  0  0  0  0  0
    4.3840    3.4575    1.1617 C   0  0  0  0  0  0  0  0  0  0  0  0
    4.7178    4.7616    1.6048 C   0  0  0  0  0  0  0  0  0  0  0  0
    5.7249    4.9176    2.6153 C   0  0  0  0  0  0  0  0  0  0  0  0
    6.5210    5.0640    3.4454 N   0  0  0  0  0  0  0  0  0  0  0  0
    5.0731    2.2525    1.7831 C   0  0  0  0  0  0  0  0  0  0  0  0
    4.4194    0.9178    1.4448 C   0  0  0  0  0  0  0  0  0  0  0  0
    4.1604    0.8404   -0.0485 C   0  0  0  0  0  0  0  0  0  0  0  0
    3.1577    1.9177   -0.4523 C   0  0  0  0  0  0  0  0  0  0  0  0
    1.8247    4.4527   -1.4878 C   0  0  0  0  0  0  0  0  0  0  0  0
    0.6591    3.6629   -1.3841 C   0  0  0  0  0  0  0  0  0  0  0  0
   -0.3129    3.6479   -2.3902 C   0  0  0  0  0  0  0  0  0  0  0  0
   -0.1687    4.4579   -3.5090 C   0  0  0  0  0  0  0  0  0  0  0  0
    0.9547    5.2728   -3.6282 C   0  0  0  0  0  0  0  0  0  0  0  0
    1.9481    5.2623   -2.6378 C   0  0  0  0  0  0  0  0  0  0  0  0
    3.3395    6.2544   -2.9377 Cl  0  0  0  0  0  0  0  0  0  0  0  0
    3.5847    8.2898    0.5449 C   0  0  0  0  0  0  0  0  0  0  0  0
    2.9815    9.0860   -0.0500 N   0  0  0  0  0  0  0  0  0  0  0  0
    5.8177    7.6189    1.0697 C   0  0  0  0  0  0  0  0  0  0  0  0
    6.9417    7.8147    0.8586 N   0  0  0  0  0  0  0  0  0  0  0  0
    0.5979    7.0502    3.9409 H   0  0  0  0  0  0  0  0  0  0  0  0
    4.8048    7.1847    3.5317 H   0  0  0  0  0  0  0  0  0  0  0  0
    4.3211    8.7737    3.0224 H   0  0  0  0  0  0  0  0  0  0  0  0
    6.1143    2.2391    1.4365 H   0  0  0  0  0  0  0  0  0  0  0  0
    5.0815    2.3474    2.8756 H   0  0  0  0  0  0  0  0  0  0  0  0
    5.0695    0.0959    1.7641 H   0  0  0  0  0  0  0  0  0  0  0  0
    3.4745    0.8121    1.9933 H   0  0  0  0  0  0  0  0  0  0  0  0
    3.7668   -0.1473   -0.3137 H   0  0  0  0  0  0  0  0  0  0  0  0
    5.1007    0.9723   -0.5980 H   0  0  0  0  0  0  0  0  0  0  0  0
    2.1716    1.6114   -0.0845 H   0  0  0  0  0  0  0  0  0  0  0  0
    3.1206    1.9497   -1.5472 H   0  0  0  0  0  0  0  0  0  0  0  0
    0.4884    3.0496   -0.5024 H   0  0  0  0  0  0  0  0  0  0  0  0
   -1.1890    3.0104   -2.2904 H   0  0  0  0  0  0  0  0  0  0  0  0
   -0.9294    4.4622   -4.2857 H   0  0  0  0  0  0  0  0  0  0  0  0
    1.0571    5.9151   -4.4992 H   0  0  0  0  0  0  0  0  0  0  0  0
  1  2  3  0  0  0  0
  1 28  1  0  0  0  0
  2  3  1  0  0  0  0
  3  4  1  0  0  0  0
  3 29  1  0  0  0  0
  3 30  1  0  0  0  0
  4 26  1  0  0  0  0
  4 24  1  0  0  0  0
  4  5  1  0  0  0  0
  5  6  2  0  0  0  0
  5 10  1  0  0  0  0
  6  7  1  0  0  0  0
  7  8  2  0  0  0  0
  7 17  1  0  0  0  0
  8 16  1  0  0  0  0
  8  9  1  0  0  0  0
  9 10  2  0  0  0  0
  9 13  1  0  0  0  0
 10 11  1  0  0  0  0
 11 12  3  0  0  0  0
 13 14  1  0  0  0  0
 13 31  1  0  0  0  0
 13 32  1  0  0  0  0
 14 15  1  0  0  0  0
 14 33  1  0  0  0  0
 14 34  1  0  0  0  0
 15 16  1  0  0  0  0
 15 35  1  0  0  0  0
 15 36  1  0  0  0  0
 16 37  1  0  0  0  0
 16 38  1  0  0  0  0
 17 18  2  0  0  0  0
 17 22  1  0  0  0  0
 18 19  1  0  0  0  0
 18 39  1  0  0  0  0
 19 20  2  0  0  0  0
 19 40  1  0  0  0  0
 20 21  1  0  0  0  0
 20 41  1  0  0  0  0
 21 22  2  0  0  0  0
 21 42  1  0  0  0  0
 22 23  1  0  0  0  0
 24 25  3  0  0  0  0
 26 27  3  0  0  0  0
M  END
$$$$