40864199 40864198
 OpenBabel01151410473D

 15 15  0  0  1  0  0  0  0  0999 V2000
    3.5404    0.7697    0.3890 O   0  0  0  0  0  0  0  0  0  0  0  0
    2.4778   -0.0681   -0.0449 C   0  0  3  0  0  0  0  0  0  0  0  0
    3.0809   -1.2840   -0.6906 C   0  0  0  0  0  0  0  0  0  0  0  0
    3.5575   -2.5064    0.0633 C   0  0  0  0  0  0  0  0  0  0  0  0
    2.3662   -2.6073   -0.8561 C   0  0  0  0  0  0  0  0  0  0  0  0
    1.6573   -0.4471    1.0813 C   0  0  0  0  0  0  0  0  0  0  0  0
    0.9811   -0.7594    2.0095 C   0  0  0  0  0  0  0  0  0  0  0  0
    3.1443    1.4306    0.9806 H   0  0  0  0  0  0  0  0  0  0  0  0
    1.8938    0.4850   -0.7878 H   0  0  0  0  0  0  0  0  0  0  0  0
    3.7025   -0.9683   -1.5257 H   0  0  0  0  0  0  0  0  0  0  0  0
    3.3889   -2.5706    1.1315 H   0  0  0  0  0  0  0  0  0  0  0  0
    4.4891   -2.9595   -0.2565 H   0  0  0  0  0  0  0  0  0  0  0  0
    2.4958   -3.1363   -1.7936 H   0  0  0  0  0  0  0  0  0  0  0  0
    1.3907   -2.7502   -0.4069 H   0  0  0  0  0  0  0  0  0  0  0  0
    0.3802   -1.0459    2.8417 H   0  0  0  0  0  0  0  0  0  0  0  0
  1  2  1  0  0  0  0
  1  8  1  0  0  0  0
  2  6  1  0  0  0  0
  2  3  1  0  0  0  0
  2  9  1  0  0  0  0
  3  5  1  0  0  0  0
  3  4  1  0  0  0  0
  3 10  1  0  0  0  0
  4  5  1  0  0  0  0
  4 11  1  0  0  0  0
  4 12  1  0  0  0  0
  5 13  1  0  0  0  0
  5 14  1  0  0  0  0
  6  7  3  0  0  0  0
  7 15  1  0  0  0  0
M  END
$$$$