523300 523299
 OpenBabel01151410423D

 14 14  0  0  0  0  0  0  0  0999 V2000
    0.9178    0.0792    0.0691 C   0  0  0  0  0  0  0  0  0  0  0  0
    2.3578    0.0297    0.0731 N   0  0  0  0  0  0  0  0  0  0  0  0
    3.1930    1.1107    0.0790 C   0  0  0  0  0  0  0  0  0  0  0  0
    4.4553    0.7447    0.0823 N   0  0  0  0  0  0  0  0  0  0  0  0
    4.4300   -0.6286    0.0780 C   0  0  0  0  0  0  0  0  0  0  0  0
    3.1352   -1.0985    0.0719 C   0  0  0  0  0  0  0  0  0  0  0  0
    2.6820   -2.4439    0.0656 C   0  0  0  0  0  0  0  0  0  0  0  0
    2.2988   -3.5804    0.0599 C   0  0  0  0  0  0  0  0  0  0  0  0
    0.5869    1.1209    0.0686 H   0  0  0  0  0  0  0  0  0  0  0  0
    0.5496   -0.4239    0.9669 H   0  0  0  0  0  0  0  0  0  0  0  0
    0.5544   -0.4230   -0.8311 H   0  0  0  0  0  0  0  0  0  0  0  0
    2.8366    2.1327    0.0807 H   0  0  0  0  0  0  0  0  0  0  0  0
    5.3460   -1.2050    0.0794 H   0  0  0  0  0  0  0  0  0  0  0  0
    1.9659   -4.5928    0.0549 H   0  0  0  0  0  0  0  0  0  0  0  0
  1  2  1  0  0  0  0
  1  9  1  0  0  0  0
  1 10  1  0  0  0  0
  1 11  1  0  0  0  0
  2  3  1  0  0  0  0
  2  6  1  0  0  0  0
  3  4  2  0  0  0  0
  3 12  1  0  0  0  0
  4  5  1  0  0  0  0
  5  6  2  0  0  0  0
  5 13  1  0  0  0  0
  6  7  1  0  0  0  0
  7  8  3  0  0  0  0
  8 14  1  0  0  0  0
M  END
$$$$