525227 525226
 OpenBabel01151410423D

 16 16  0  0  0  0  0  0  0  0999 V2000
    0.9193   -0.0789    0.1206 C   0  0  0  0  0  0  0  0  0  0  0  0
    2.1171   -0.0951    0.0373 C   0  0  0  0  0  0  0  0  0  0  0  0
    3.5442   -0.1149   -0.0650 C   0  0  0  0  0  0  0  0  0  0  0  0
    4.2626    1.0834   -0.0469 C   0  0  0  0  0  0  0  0  0  0  0  0
    5.6547    1.0660   -0.1499 C   0  0  0  0  0  0  0  0  0  0  0  0
    6.3295   -0.1500   -0.2716 C   0  0  0  0  0  0  0  0  0  0  0  0
    5.6131   -1.3494   -0.2898 C   0  0  0  0  0  0  0  0  0  0  0  0
    4.2197   -1.3322   -0.1856 C   0  0  0  0  0  0  0  0  0  0  0  0
    6.3064   -2.5957   -0.4181 C   0  0  0  0  0  0  0  0  0  0  0  0
    6.8862   -3.6397   -0.5279 C   0  0  0  0  0  0  0  0  0  0  0  0
   -0.1432   -0.0652    0.1931 H   0  0  0  0  0  0  0  0  0  0  0  0
    3.7432    2.0343    0.0466 H   0  0  0  0  0  0  0  0  0  0  0  0
    6.2127    1.9987   -0.1365 H   0  0  0  0  0  0  0  0  0  0  0  0
    7.4140   -0.1562   -0.3526 H   0  0  0  0  0  0  0  0  0  0  0  0
    3.6613   -2.2653   -0.1998 H   0  0  0  0  0  0  0  0  0  0  0  0
    7.4008   -4.5680   -0.6268 H   0  0  0  0  0  0  0  0  0  0  0  0
  1  2  3  0  0  0  0
  1 11  1  0  0  0  0
  2  3  1  0  0  0  0
  3  4  2  0  0  0  0
  3  8  1  0  0  0  0
  4  5  1  0  0  0  0
  4 12  1  0  0  0  0
  5  6  2  0  0  0  0
  5 13  1  0  0  0  0
  6  7  1  0  0  0  0
  6 14  1  0  0  0  0
  7  8  2  0  0  0  0
  7  9  1  0  0  0  0
  8 15  1  0  0  0  0
  9 10  3  0  0  0  0
 10 16  1  0  0  0  0
M  END
$$$$