2721776 2721775
 OpenBabel01151410423D

 23 22  0  0  1  0  0  0  0  0999 V2000
    3.0866   -1.2776    0.7532 C   0  0  0  0  0  0  0  0  0  0  0  0
    2.5020   -0.0798   -0.0027 C   0  0  3  0  0  0  0  0  0  0  0  0
    1.0327   -0.1934   -0.0398 C   0  0  0  0  0  0  0  0  0  0  0  0
   -0.1650   -0.2888   -0.0775 C   0  0  0  0  0  0  0  0  0  0  0  0
    2.9494    1.2366    0.6657 C   0  0  0  0  0  0  0  0  0  0  0  0
    2.5071    2.5050   -0.0804 C   0  0  0  0  0  0  0  0  0  0  0  0
    3.0274    3.7627    0.6184 C   0  0  0  0  0  0  0  0  0  0  0  0
    2.5840    5.0261   -0.1017 C   0  0  0  0  0  0  0  0  0  0  0  0
    2.9910   -0.1246   -1.3422 O   0  0  0  0  0  0  0  0  0  0  0  0
    4.1818   -1.2367    0.7670 H   0  0  0  0  0  0  0  0  0  0  0  0
    2.8178   -2.2210    0.2627 H   0  0  0  0  0  0  0  0  0  0  0  0
    2.7291   -1.3188    1.7882 H   0  0  0  0  0  0  0  0  0  0  0  0
   -1.2256   -0.3732   -0.1238 H   0  0  0  0  0  0  0  0  0  0  0  0
    4.0463    1.2496    0.7208 H   0  0  0  0  0  0  0  0  0  0  0  0
    2.5763    1.2770    1.6975 H   0  0  0  0  0  0  0  0  0  0  0  0
    1.4131    2.5493   -0.1310 H   0  0  0  0  0  0  0  0  0  0  0  0
    2.8794    2.4827   -1.1113 H   0  0  0  0  0  0  0  0  0  0  0  0
    4.1226    3.7388    0.6603 H   0  0  0  0  0  0  0  0  0  0  0  0
    2.6635    3.7921    1.6520 H   0  0  0  0  0  0  0  0  0  0  0  0
    2.9553    5.0422   -1.1313 H   0  0  0  0  0  0  0  0  0  0  0  0
    2.9713    5.9110    0.4131 H   0  0  0  0  0  0  0  0  0  0  0  0
    1.4921    5.0997   -0.1284 H   0  0  0  0  0  0  0  0  0  0  0  0
    3.9594   -0.0683   -1.3025 H   0  0  0  0  0  0  0  0  0  0  0  0
  1  2  1  0  0  0  0
  1 10  1  0  0  0  0
  1 11  1  0  0  0  0
  1 12  1  0  0  0  0
  2  9  1  0  0  0  0
  2  5  1  0  0  0  0
  2  3  1  0  0  0  0
  3  4  3  0  0  0  0
  4 13  1  0  0  0  0
  5  6  1  0  0  0  0
  5 14  1  0  0  0  0
  5 15  1  0  0  0  0
  6  7  1  0  0  0  0
  6 16  1  0  0  0  0
  6 17  1  0  0  0  0
  7  8  1  0  0  0  0
  7 18  1  0  0  0  0
  7 19  1  0  0  0  0
  8 20  1  0  0  0  0
  8 21  1  0  0  0  0
  8 22  1  0  0  0  0
  9 23  1  0  0  0  0
M  END
$$$$