33452124 33452123
 OpenBabel01151410443D

 23 22  0  0  0  0  0  0  0  0999 V2000
    0.7802   -2.4290   -0.9248 C   0  0  0  0  0  0  0  0  0  0  0  0
    1.9742   -2.5677   -0.9123 C   0  0  0  0  0  0  0  0  0  0  0  0
    3.4309   -2.7473   -0.9057 C   0  0  0  0  0  0  0  0  0  0  0  0
    4.0489   -1.4787   -1.1000 O   0  0  0  0  0  0  0  0  0  0  0  0
    5.4681   -1.5633   -1.0223 C   0  0  0  0  0  0  0  0  0  0  0  0
    5.9044   -1.8972    0.2883 O   0  0  0  0  0  0  0  0  0  0  0  0
    5.5937   -0.8689    1.2222 C   0  0  0  0  0  0  0  0  0  0  0  0
    6.0781   -1.2751    2.5462 C   0  0  0  0  0  0  0  0  0  0  0  0
    6.4674   -1.6158    3.6303 C   0  0  0  0  0  0  0  0  0  0  0  0
    5.9542   -2.4977   -1.9766 O   0  0  0  0  0  0  0  0  0  0  0  0
    7.3707   -2.4757   -2.0756 C   0  0  0  0  0  0  0  0  0  0  0  0
    7.7787   -3.4284   -3.1149 C   0  0  0  0  0  0  0  0  0  0  0  0
    8.0955   -4.2165   -3.9642 C   0  0  0  0  0  0  0  0  0  0  0  0
   -0.2775   -2.3050   -0.9420 H   0  0  0  0  0  0  0  0  0  0  0  0
    3.7134   -3.4344   -1.7105 H   0  0  0  0  0  0  0  0  0  0  0  0
    3.7393   -3.1793    0.0526 H   0  0  0  0  0  0  0  0  0  0  0  0
    5.8523   -0.5712   -1.2918 H   0  0  0  0  0  0  0  0  0  0  0  0
    4.5111   -0.7072    1.2630 H   0  0  0  0  0  0  0  0  0  0  0  0
    6.0792    0.0659    0.9202 H   0  0  0  0  0  0  0  0  0  0  0  0
    6.8097   -1.9287    4.5897 H   0  0  0  0  0  0  0  0  0  0  0  0
    7.8215   -2.7595   -1.1186 H   0  0  0  0  0  0  0  0  0  0  0  0
    7.7110   -1.4687   -2.3420 H   0  0  0  0  0  0  0  0  0  0  0  0
    8.3602   -4.9227   -4.7171 H   0  0  0  0  0  0  0  0  0  0  0  0
  1  2  3  0  0  0  0
  1 14  1  0  0  0  0
  2  3  1  0  0  0  0
  3  4  1  0  0  0  0
  3 15  1  0  0  0  0
  3 16  1  0  0  0  0
  4  5  1  0  0  0  0
  5 10  1  0  0  0  0
  5  6  1  0  0  0  0
  5 17  1  0  0  0  0
  6  7  1  0  0  0  0
  7  8  1  0  0  0  0
  7 18  1  0  0  0  0
  7 19  1  0  0  0  0
  8  9  3  0  0  0  0
  9 20  1  0  0  0  0
 10 11  1  0  0  0  0
 11 12  1  0  0  0  0
 11 21  1  0  0  0  0
 11 22  1  0  0  0  0
 12 13  3  0  0  0  0
 13 23  1  0  0  0  0
M  END
$$$$