31206004 31206003
 OpenBabel01151410453D

 23 22  0  0  0  0  0  0  0  0999 V2000
    1.2219    1.1035    4.1173 O   0  0  0  0  0  0  0  0  0  0  0  0
    1.9845    0.8470    2.9457 C   0  0  0  0  0  0  0  0  0  0  0  0
    3.1658    1.8060    2.8793 C   0  0  0  0  0  0  0  0  0  0  0  0
    4.0207    1.5629    1.6373 C   0  0  0  0  0  0  0  0  0  0  0  0
    5.2071    2.5269    1.5821 C   0  0  0  0  0  0  0  0  0  0  0  0
    6.0639    2.2870    0.3376 C   0  0  0  0  0  0  0  0  0  0  0  0
    7.2523    3.2471    0.2874 C   0  0  0  0  0  0  0  0  0  0  0  0
    8.0726    3.0136   -0.9108 C   0  0  0  0  0  0  0  0  0  0  0  0
    8.7457    2.8260   -1.8874 C   0  0  0  0  0  0  0  0  0  0  0  0
    0.8927    2.0166    4.0584 H   0  0  0  0  0  0  0  0  0  0  0  0
    1.3306    0.9575    2.0747 H   0  0  0  0  0  0  0  0  0  0  0  0
    2.3277   -0.1913    2.9878 H   0  0  0  0  0  0  0  0  0  0  0  0
    3.7729    1.6957    3.7865 H   0  0  0  0  0  0  0  0  0  0  0  0
    2.7975    2.8395    2.8888 H   0  0  0  0  0  0  0  0  0  0  0  0
    3.4049    1.6858    0.7380 H   0  0  0  0  0  0  0  0  0  0  0  0
    4.3870    0.5291    1.6397 H   0  0  0  0  0  0  0  0  0  0  0  0
    5.8227    2.4025    2.4812 H   0  0  0  0  0  0  0  0  0  0  0  0
    4.8405    3.5606    1.5814 H   0  0  0  0  0  0  0  0  0  0  0  0
    5.4481    2.4109   -0.5625 H   0  0  0  0  0  0  0  0  0  0  0  0
    6.4241    1.2501    0.3328 H   0  0  0  0  0  0  0  0  0  0  0  0
    7.8708    3.1203    1.1834 H   0  0  0  0  0  0  0  0  0  0  0  0
    6.8938    4.2830    0.2878 H   0  0  0  0  0  0  0  0  0  0  0  0
    9.3438    2.6598   -2.7534 H   0  0  0  0  0  0  0  0  0  0  0  0
  1  2  1  0  0  0  0
  1 10  1  0  0  0  0
  2  3  1  0  0  0  0
  2 11  1  0  0  0  0
  2 12  1  0  0  0  0
  3  4  1  0  0  0  0
  3 13  1  0  0  0  0
  3 14  1  0  0  0  0
  4  5  1  0  0  0  0
  4 15  1  0  0  0  0
  4 16  1  0  0  0  0
  5  6  1  0  0  0  0
  5 17  1  0  0  0  0
  5 18  1  0  0  0  0
  6  7  1  0  0  0  0
  6 19  1  0  0  0  0
  6 20  1  0  0  0  0
  7  8  1  0  0  0  0
  7 21  1  0  0  0  0
  7 22  1  0  0  0  0
  8  9  3  0  0  0  0
  9 23  1  0  0  0  0
M  END
$$$$