32081 32080
 OpenBabel01151410413D

 26 26  0  0  0  0  0  0  0  0999 V2000
    1.0090    0.4512   -0.6384 C   0  0  0  0  0  0  0  0  0  0  0  0
    2.1863    0.2715   -0.4730 C   0  0  0  0  0  0  0  0  0  0  0  0
    3.5971    0.0944   -0.2787 C   0  0  0  0  0  0  0  0  0  0  0  0
    4.3795    1.2598   -0.2448 C   0  0  0  0  0  0  0  0  0  0  0  0
    5.7605    1.1903   -0.0730 C   0  0  0  0  0  0  0  0  0  0  0  0
    6.3744   -0.0478    0.0666 C   0  0  0  0  0  0  0  0  0  0  0  0
    5.6092   -1.2164    0.0378 C   0  0  0  0  0  0  0  0  0  0  0  0
    4.2075   -1.1711   -0.1322 C   0  0  0  0  0  0  0  0  0  0  0  0
    3.2314   -2.8341   -0.1686 Si  0  0  0  0  0  0  0  0  0  0  0  0
    4.3733   -4.2796    0.2430 C   0  0  0  0  0  0  0  0  0  0  0  0
    1.8517   -2.8163    1.1051 C   0  0  0  0  0  0  0  0  0  0  0  0
    2.5342   -3.1013   -1.8920 C   0  0  0  0  0  0  0  0  0  0  0  0
   -0.0335    0.6104   -0.7822 H   0  0  0  0  0  0  0  0  0  0  0  0
    3.9102    2.2353   -0.3561 H   0  0  0  0  0  0  0  0  0  0  0  0
    6.3532    2.1006   -0.0509 H   0  0  0  0  0  0  0  0  0  0  0  0
    7.4519   -0.1087    0.1973 H   0  0  0  0  0  0  0  0  0  0  0  0
    6.1352   -2.1626    0.1487 H   0  0  0  0  0  0  0  0  0  0  0  0
    5.1720   -4.3691   -0.4991 H   0  0  0  0  0  0  0  0  0  0  0  0
    3.8080   -5.2164    0.2495 H   0  0  0  0  0  0  0  0  0  0  0  0
    4.8248   -4.1466    1.2306 H   0  0  0  0  0  0  0  0  0  0  0  0
    1.0427   -2.1426    0.8127 H   0  0  0  0  0  0  0  0  0  0  0  0
    2.2299   -2.4988    2.0812 H   0  0  0  0  0  0  0  0  0  0  0  0
    1.4255   -3.8183    1.2152 H   0  0  0  0  0  0  0  0  0  0  0  0
    1.8303   -2.3093   -2.1620 H   0  0  0  0  0  0  0  0  0  0  0  0
    2.0063   -4.0580   -1.9465 H   0  0  0  0  0  0  0  0  0  0  0  0
    3.3381   -3.1130   -2.6341 H   0  0  0  0  0  0  0  0  0  0  0  0
  1  2  3  0  0  0  0
  1 13  1  0  0  0  0
  2  3  1  0  0  0  0
  3  4  2  0  0  0  0
  3  8  1  0  0  0  0
  4  5  1  0  0  0  0
  4 14  1  0  0  0  0
  5  6  2  0  0  0  0
  5 15  1  0  0  0  0
  6  7  1  0  0  0  0
  6 16  1  0  0  0  0
  7  8  2  0  0  0  0
  7 17  1  0  0  0  0
  8  9  1  0  0  0  0
  9 12  1  0  0  0  0
  9 11  1  0  0  0  0
  9 10  1  0  0  0  0
 10 18  1  0  0  0  0
 10 19  1  0  0  0  0
 10 20  1  0  0  0  0
 11 21  1  0  0  0  0
 11 22  1  0  0  0  0
 11 23  1  0  0  0  0
 12 24  1  0  0  0  0
 12 25  1  0  0  0  0
 12 26  1  0  0  0  0
M  END
$$$$