979171 979170
 OpenBabel01151410483D

 11 10  0  0  0  0  0  0  0  0999 V2000
    1.0759   -0.0252    0.0600 C   0  0  0  0  0  0  0  0  0  0  0  0
    2.2661   -0.0252    0.0600 C   0  0  0  0  0  0  0  0  0  0  0  0
    3.7101   -0.0252    0.0600 C   0  0  0  0  0  0  0  0  0  0  0  0
    4.2672   -1.0185   -0.9557 C   0  0  0  0  0  0  0  0  0  0  0  0
    5.7352   -1.0050   -0.9419 C   0  0  0  0  0  0  0  0  0  0  0  0
    6.8937   -0.9909   -0.9274 N   0  0  0  0  0  0  0  0  0  0  0  0
    0.0096   -0.0216    0.0637 H   0  0  0  0  0  0  0  0  0  0  0  0
    4.0814   -0.2720    1.0627 H   0  0  0  0  0  0  0  0  0  0  0  0
    4.0814    0.9828   -0.1644 H   0  0  0  0  0  0  0  0  0  0  0  0
    3.9076   -0.7721   -1.9623 H   0  0  0  0  0  0  0  0  0  0  0  0
    3.9076   -2.0304   -0.7318 H   0  0  0  0  0  0  0  0  0  0  0  0
  1  2  3  0  0  0  0
  1  7  1  0  0  0  0
  2  3  1  0  0  0  0
  3  4  1  0  0  0  0
  3  8  1  0  0  0  0
  3  9  1  0  0  0  0
  4  5  1  0  0  0  0
  4 10  1  0  0  0  0
  4 11  1  0  0  0  0
  5  6  3  0  0  0  0
M  END
$$$$