31422867 31422866
 OpenBabel01151410463D

 19 20  0  0  1  0  0  0  0  0999 V2000
    0.8785   -0.0448    0.2220 C   0  0  0  0  0  0  0  0  0  0  0  0
    2.0720   -0.0234    0.0899 C   0  0  0  0  0  0  0  0  0  0  0  0
    3.4937    0.0004   -0.0685 C   0  0  0  0  0  0  0  0  0  0  0  0
    4.1672    1.2183   -0.1513 C   0  0  0  0  0  0  0  0  0  0  0  0
    5.5519    1.2355   -0.3049 C   0  0  0  0  0  0  0  0  0  0  0  0
    6.2609    0.0336   -0.3765 C   0  0  0  0  0  0  0  0  0  0  0  0
    5.6078   -1.2085   -0.2997 C   0  0  0  0  0  0  0  0  0  0  0  0
    4.2109   -1.1983   -0.1401 C   0  0  0  0  0  0  0  0  0  0  0  0
    6.3834   -2.4974   -0.3660 C   0  0  3  0  0  0  0  0  0  0  0  0
    5.8088   -3.5919   -1.1047 O   0  0  0  0  0  0  0  0  0  0  0  0
    6.9540   -2.9631   -1.6856 C   0  0  0  0  0  0  0  0  0  0  0  0
   -0.1799   -0.0663    0.3382 H   0  0  0  0  0  0  0  0  0  0  0  0
    3.6194    2.1557   -0.0966 H   0  0  0  0  0  0  0  0  0  0  0  0
    6.0800    2.1834   -0.3682 H   0  0  0  0  0  0  0  0  0  0  0  0
    7.3424    0.0657   -0.4943 H   0  0  0  0  0  0  0  0  0  0  0  0
    3.6806   -2.1475   -0.0768 H   0  0  0  0  0  0  0  0  0  0  0  0
    6.9347   -2.7686    0.5297 H   0  0  0  0  0  0  0  0  0  0  0  0
    7.8862   -3.5132   -1.6748 H   0  0  0  0  0  0  0  0  0  0  0  0
    6.7946   -2.3607   -2.5712 H   0  0  0  0  0  0  0  0  0  0  0  0
  1  2  3  0  0  0  0
  1 12  1  0  0  0  0
  2  3  1  0  0  0  0
  3  4  2  0  0  0  0
  3  8  1  0  0  0  0
  4  5  1  0  0  0  0
  4 13  1  0  0  0  0
  5  6  2  0  0  0  0
  5 14  1  0  0  0  0
  6  7  1  0  0  0  0
  6 15  1  0  0  0  0
  7  8  2  0  0  0  0
  7  9  1  0  0  0  0
  8 16  1  0  0  0  0
  9 11  1  0  0  0  0
  9 10  1  0  0  0  0
  9 17  1  0  0  0  0
 10 11  1  0  0  0  0
 11 18  1  0  0  0  0
 11 19  1  0  0  0  0
M  END
$$$$