25334934 25334933
 OpenBabel01151410423D

 67 70  0  0  1  0  0  0  0  0999 V2000
   13.3540    1.0101   -7.6260 C   0  0  0  0  0  0  0  0  0  0  0  0
   12.4941    0.2853   -7.1967 C   0  0  0  0  0  0  0  0  0  0  0  0
   11.4046   -0.5658   -6.7151 C   0  0  0  0  0  0  0  0  0  0  0  0
   10.4295   -0.6362   -7.7480 O   0  0  0  0  0  0  0  0  0  0  0  0
    9.2946   -1.4215   -7.4235 C   0  0  0  0  0  0  0  0  0  0  0  0
    8.2727   -0.7431   -6.4859 C   0  0  3  0  0  0  0  0  0  0  0  0
    8.0587    0.7550   -6.8093 C   0  0  0  0  0  0  0  0  0  0  0  0
    7.2673    1.6019   -5.9026 N   0  0  0  0  0  0  0  0  0  0  0  0
    7.9991    2.5460   -5.0500 C   0  0  0  0  0  0  0  0  0  0  0  0
    8.7821    3.5208   -5.8962 C   0  0  0  0  0  0  0  0  0  0  0  0
    8.3748    4.1570   -7.0946 C   0  0  0  0  0  0  0  0  0  0  0  0
    7.0291    4.1500   -7.7495 C   0  0  0  0  0  0  0  0  0  0  0  0
    6.7069    5.4344   -8.5044 C   0  0  0  0  0  0  0  0  0  0  0  0
    9.4000    4.7502   -7.6965 N   0  0  0  0  0  0  0  0  0  0  0  0
   10.4722    4.5783   -6.8737 N   0  0  0  0  0  0  0  0  0  0  0  0
   10.0753    3.9968   -5.6540 C   0  0  0  0  0  0  0  0  0  0  0  0
   10.7374    3.7926   -4.5051 O   0  0  0  0  0  0  0  0  0  0  0  0
   12.0424    4.0796   -4.2480 C   0  0  0  0  0  0  0  0  0  0  0  0
   12.3582    5.1683   -3.4321 C   0  0  0  0  0  0  0  0  0  0  0  0
   13.6944    5.4461   -3.1364 C   0  0  0  0  0  0  0  0  0  0  0  0
   14.7038    4.6143   -3.6266 C   0  0  0  0  0  0  0  0  0  0  0  0
   14.3764    3.4919   -4.3872 C   0  0  0  0  0  0  0  0  0  0  0  0
   13.0415    3.2148   -4.6813 C   0  0  0  0  0  0  0  0  0  0  0  0
   11.7396    4.8610   -7.4587 C   0  0  0  0  0  0  0  0  0  0  0  0
   12.7338    5.5978   -6.8250 C   0  0  0  0  0  0  0  0  0  0  0  0
   13.9749    5.7855   -7.4469 C   0  0  0  0  0  0  0  0  0  0  0  0
   14.2065    5.2868   -8.7284 C   0  0  0  0  0  0  0  0  0  0  0  0
   13.1883    4.6250   -9.4063 C   0  0  0  0  0  0  0  0  0  0  0  0
   11.9577    4.4222   -8.7796 C   0  0  0  0  0  0  0  0  0  0  0  0
    6.0255    1.0763   -5.3408 C   0  0  0  0  0  0  0  0  0  0  0  0
    6.1227    0.2010   -4.1339 C   0  0  0  0  0  0  0  0  0  0  0  0
    5.8579   -1.1392   -3.9211 C   0  0  0  0  0  0  0  0  0  0  0  0
    6.0296   -1.3780   -2.5404 C   0  0  0  0  0  0  0  0  0  0  0  0
    6.3613   -0.1656   -1.9853 C   0  0  0  0  0  0  0  0  0  0  0  0
    6.4223    0.7995   -2.9420 O   0  0  0  0  0  0  0  0  0  0  0  0
    7.0479   -1.4785   -6.6336 O   0  0  0  0  0  0  0  0  0  0  0  0
   14.0831    1.6828   -8.0130 H   0  0  0  0  0  0  0  0  0  0  0  0
   10.9642   -0.1377   -5.8084 H   0  0  0  0  0  0  0  0  0  0  0  0
   11.7774   -1.5703   -6.4886 H   0  0  0  0  0  0  0  0  0  0  0  0
    9.6004   -2.3926   -7.0131 H   0  0  0  0  0  0  0  0  0  0  0  0
    8.8012   -1.6543   -8.3750 H   0  0  0  0  0  0  0  0  0  0  0  0
    8.6177   -0.8470   -5.4515 H   0  0  0  0  0  0  0  0  0  0  0  0
    7.5562    0.8109   -7.7838 H   0  0  0  0  0  0  0  0  0  0  0  0
    9.0387    1.2150   -6.9663 H   0  0  0  0  0  0  0  0  0  0  0  0
    8.6633    2.0020   -4.3682 H   0  0  0  0  0  0  0  0  0  0  0  0
    7.3067    3.1375   -4.4377 H   0  0  0  0  0  0  0  0  0  0  0  0
    6.2539    4.0055   -6.9881 H   0  0  0  0  0  0  0  0  0  0  0  0
    6.9703    3.3021   -8.4414 H   0  0  0  0  0  0  0  0  0  0  0  0
    5.6900    5.3932   -8.9068 H   0  0  0  0  0  0  0  0  0  0  0  0
    7.3927    5.5859   -9.3452 H   0  0  0  0  0  0  0  0  0  0  0  0
    6.7802    6.3082   -7.8477 H   0  0  0  0  0  0  0  0  0  0  0  0
   11.5703    5.8128   -3.0486 H   0  0  0  0  0  0  0  0  0  0  0  0
   13.9518    6.3112   -2.5303 H   0  0  0  0  0  0  0  0  0  0  0  0
   15.7459    4.8362   -3.4098 H   0  0  0  0  0  0  0  0  0  0  0  0
   15.1578    2.8349   -4.7593 H   0  0  0  0  0  0  0  0  0  0  0  0
   12.7785    2.3387   -5.2597 H   0  0  0  0  0  0  0  0  0  0  0  0
   12.5610    6.0739   -5.8690 H   0  0  0  0  0  0  0  0  0  0  0  0
   14.7590    6.3320   -6.9299 H   0  0  0  0  0  0  0  0  0  0  0  0
   15.1714    5.4346   -9.2066 H   0  0  0  0  0  0  0  0  0  0  0  0
   13.3463    4.2615  -10.4182 H   0  0  0  0  0  0  0  0  0  0  0  0
   11.1751    3.8923   -9.3211 H   0  0  0  0  0  0  0  0  0  0  0  0
    5.4666    0.5527   -6.1262 H   0  0  0  0  0  0  0  0  0  0  0  0
    5.3804    1.9260   -5.0789 H   0  0  0  0  0  0  0  0  0  0  0  0
    5.5679   -1.8560   -4.6774 H   0  0  0  0  0  0  0  0  0  0  0  0
    5.9065   -2.3154   -2.0150 H   0  0  0  0  0  0  0  0  0  0  0  0
    6.5664    0.1605   -0.9770 H   0  0  0  0  0  0  0  0  0  0  0  0
    6.6760   -1.2538   -7.5052 H   0  0  0  0  0  0  0  0  0  0  0  0
  1  2  3  0  0  0  0
  1 37  1  0  0  0  0
  2  3  1  0  0  0  0
  3  4  1  0  0  0  0
  3 38  1  0  0  0  0
  3 39  1  0  0  0  0
  4  5  1  0  0  0  0
  5  6  1  0  0  0  0
  5 40  1  0  0  0  0
  5 41  1  0  0  0  0
  6 36  1  0  0  0  0
  6  7  1  0  0  0  0
  6 42  1  0  0  0  0
  7  8  1  0  0  0  0
  7 43  1  0  0  0  0
  7 44  1  0  0  0  0
  8 30  1  0  0  0  0
  8  9  1  0  0  0  0
  9 10  1  0  0  0  0
  9 45  1  0  0  0  0
  9 46  1  0  0  0  0
 10 16  2  0  0  0  0
 10 11  1  0  0  0  0
 11 14  2  0  0  0  0
 11 12  1  0  0  0  0
 12 13  1  0  0  0  0
 12 47  1  0  0  0  0
 12 48  1  0  0  0  0
 13 49  1  0  0  0  0
 13 50  1  0  0  0  0
 13 51  1  0  0  0  0
 14 15  1  0  0  0  0
 15 16  1  0  0  0  0
 15 24  1  0  0  0  0
 16 17  1  0  0  0  0
 17 18  1  0  0  0  0
 18 19  2  0  0  0  0
 18 23  1  0  0  0  0
 19 20  1  0  0  0  0
 19 52  1  0  0  0  0
 20 21  2  0  0  0  0
 20 53  1  0  0  0  0
 21 22  1  0  0  0  0
 21 54  1  0  0  0  0
 22 23  2  0  0  0  0
 22 55  1  0  0  0  0
 23 56  1  0  0  0  0
 24 25  2  0  0  0  0
 24 29  1  0  0  0  0
 25 26  1  0  0  0  0
 25 57  1  0  0  0  0
 26 27  2  0  0  0  0
 26 58  1  0  0  0  0
 27 28  1  0  0  0  0
 27 59  1  0  0  0  0
 28 29  2  0  0  0  0
 28 60  1  0  0  0  0
 29 61  1  0  0  0  0
 30 31  1  0  0  0  0
 30 62  1  0  0  0  0
 30 63  1  0  0  0  0
 31 32  2  0  0  0  0
 31 35  1  0  0  0  0
 32 33  1  0  0  0  0
 32 64  1  0  0  0  0
 33 34  2  0  0  0  0
 33 65  1  0  0  0  0
 34 35  1  0  0  0  0
 34 66  1  0  0  0  0
 36 67  1  0  0  0  0
M  END
$$$$