487083 487082
 OpenBabel01151410433D

 11 10  0  0  1  0  0  0  0  0999 V2000
    1.0619   -0.0795   -0.0899 C   0  0  0  0  0  0  0  0  0  0  0  0
    2.5825   -0.0193   -0.0757 C   0  0  3  0  0  0  0  0  0  0  0  0
    3.0638    1.3412   -0.1254 C   0  0  0  0  0  0  0  0  0  0  0  0
    3.4605    2.4626   -0.1663 C   0  0  0  0  0  0  0  0  0  0  0  0
    3.0519   -0.6500    1.1123 O   0  0  0  0  0  0  0  0  0  0  0  0
    0.7203   -1.1186   -0.0310 H   0  0  0  0  0  0  0  0  0  0  0  0
    0.6508    0.3729   -0.9981 H   0  0  0  0  0  0  0  0  0  0  0  0
    0.6357    0.4409    0.7759 H   0  0  0  0  0  0  0  0  0  0  0  0
    2.9722   -0.5933   -0.9225 H   0  0  0  0  0  0  0  0  0  0  0  0
    3.8215    3.4647   -0.2044 H   0  0  0  0  0  0  0  0  0  0  0  0
    2.8371   -0.0551    1.8508 H   0  0  0  0  0  0  0  0  0  0  0  0
  1  2  1  0  0  0  0
  1  6  1  0  0  0  0
  1  7  1  0  0  0  0
  1  8  1  0  0  0  0
  2  5  1  0  0  0  0
  2  3  1  0  0  0  0
  2  9  1  0  0  0  0
  3  4  3  0  0  0  0
  4 10  1  0  0  0  0
  5 11  1  0  0  0  0
M  END
$$$$