42914587 42914586
 OpenBabel01151410493D

 30 31  0  0  0  0  0  0  0  0999 V2000
    2.7934    0.5640    1.0905 C   0  0  0  0  0  0  0  0  0  0  0  0
    1.9593    0.3215    0.2610 C   0  0  0  0  0  0  0  0  0  0  0  0
    0.9321    0.0215   -0.7509 C   0  0  0  0  0  0  0  0  0  0  0  0
    1.4575   -0.5150   -2.0177 N   0  0  0  0  0  0  0  0  0  0  0  0
    2.3379    0.4295   -2.7267 C   0  0  0  0  0  0  0  0  0  0  0  0
    1.6479    1.6934   -3.1657 C   0  0  0  0  0  0  0  0  0  0  0  0
    2.1851    3.1991   -2.5573 S   0  0  0  0  0  0  0  0  0  0  0  0
    1.0550    4.0853   -3.5017 C   0  0  0  0  0  0  0  0  0  0  0  0
    0.2549    3.2385   -4.2730 C   0  0  0  0  0  0  0  0  0  0  0  0
    0.6144    1.8590   -4.0654 C   0  0  0  0  0  0  0  0  0  0  0  0
   -0.1727    0.5739   -4.8939 Cl  0  0  0  0  0  0  0  0  0  0  0  0
   -0.7263    3.8387   -5.1062 C   0  0  0  0  0  0  0  0  0  0  0  0
   -0.8735    5.2284   -5.1533 C   0  0  0  0  0  0  0  0  0  0  0  0
   -0.0618    6.0431   -4.3787 C   0  0  0  0  0  0  0  0  0  0  0  0
    0.9075    5.4865   -3.5425 C   0  0  0  0  0  0  0  0  0  0  0  0
    2.1479   -1.8035   -1.8521 C   0  0  0  0  0  0  0  0  0  0  0  0
    1.2620   -2.8620   -1.3409 C   0  0  0  0  0  0  0  0  0  0  0  0
    0.5497   -3.7305   -0.9107 C   0  0  0  0  0  0  0  0  0  0  0  0
    3.5319    0.7771    1.8283 H   0  0  0  0  0  0  0  0  0  0  0  0
    0.3432    0.9255   -0.9465 H   0  0  0  0  0  0  0  0  0  0  0  0
    0.2020   -0.6775   -0.3254 H   0  0  0  0  0  0  0  0  0  0  0  0
    2.7086   -0.0461   -3.6459 H   0  0  0  0  0  0  0  0  0  0  0  0
    3.2340    0.6535   -2.1331 H   0  0  0  0  0  0  0  0  0  0  0  0
   -1.3703    3.2148   -5.7220 H   0  0  0  0  0  0  0  0  0  0  0  0
   -1.6263    5.6690   -5.8026 H   0  0  0  0  0  0  0  0  0  0  0  0
   -0.1785    7.1236   -4.4217 H   0  0  0  0  0  0  0  0  0  0  0  0
    1.5425    6.1272   -2.9367 H   0  0  0  0  0  0  0  0  0  0  0  0
    3.0320   -1.7102   -1.2093 H   0  0  0  0  0  0  0  0  0  0  0  0
    2.5145   -2.1427   -2.8301 H   0  0  0  0  0  0  0  0  0  0  0  0
   -0.0839   -4.4938   -0.5248 H   0  0  0  0  0  0  0  0  0  0  0  0
  1  2  3  0  0  0  0
  1 19  1  0  0  0  0
  2  3  1  0  0  0  0
  3  4  1  0  0  0  0
  3 20  1  0  0  0  0
  3 21  1  0  0  0  0
  4 16  1  0  0  0  0
  4  5  1  0  0  0  0
  5  6  1  0  0  0  0
  5 22  1  0  0  0  0
  5 23  1  0  0  0  0
  6  7  1  0  0  0  0
  6 10  2  0  0  0  0
  7  8  1  0  0  0  0
  8 15  1  0  0  0  0
  8  9  2  0  0  0  0
  9 10  1  0  0  0  0
  9 12  1  0  0  0  0
 10 11  1  0  0  0  0
 12 13  2  0  0  0  0
 12 24  1  0  0  0  0
 13 14  1  0  0  0  0
 13 25  1  0  0  0  0
 14 15  2  0  0  0  0
 14 26  1  0  0  0  0
 15 27  1  0  0  0  0
 16 17  1  0  0  0  0
 16 28  1  0  0  0  0
 16 29  1  0  0  0  0
 17 18  3  0  0  0  0
 18 30  1  0  0  0  0
M  END
$$$$