48294734 48294733
 OpenBabel01151410493D

 45 46  0  0  1  0  0  0  0  0999 V2000
    0.6693   -0.4426   -0.1290 C   0  0  0  0  0  0  0  0  0  0  0  0
    2.1368   -0.0200   -0.3249 C   0  0  3  0  0  0  0  0  0  0  0  0
    2.2162    0.7835   -1.6054 C   0  0  0  0  0  0  0  0  0  0  0  0
    2.9193    0.5269   -2.6930 N   0  0  0  0  0  0  0  0  0  0  0  0
    2.6293    1.5782   -3.5244 C   0  0  0  0  0  0  0  0  0  0  0  0
    1.7570    2.4498   -2.9102 C   0  0  0  0  0  0  0  0  0  0  0  0
    1.4849    1.9404   -1.6679 O   0  0  0  0  0  0  0  0  0  0  0  0
    1.0931    3.7443   -3.2781 C   0  0  0  0  0  0  0  0  0  0  0  0
    1.4809    4.1736   -4.7047 C   0  0  0  0  0  0  0  0  0  0  0  0
   -0.4359    3.5807   -3.2134 C   0  0  0  0  0  0  0  0  0  0  0  0
    1.5307    4.8465   -2.2971 C   0  0  0  0  0  0  0  0  0  0  0  0
    2.6892    0.7203    0.8501 N   0  0  0  0  0  0  0  0  0  0  0  0
    2.5839   -0.0290    2.1203 C   0  0  0  0  0  0  0  0  0  0  0  0
    3.5553   -1.2271    2.2397 C   0  0  0  0  0  0  0  0  0  0  0  0
    4.9793   -0.8877    2.0314 N   0  0  0  0  0  0  0  0  0  0  0  0
    5.1100   -0.1029    0.7833 C   0  0  0  0  0  0  0  0  0  0  0  0
    4.1161    1.0803    0.6529 C   0  0  0  0  0  0  0  0  0  0  0  0
    5.5606   -0.1534    3.1668 C   0  0  0  0  0  0  0  0  0  0  0  0
    5.6106   -0.9732    4.3900 C   0  0  0  0  0  0  0  0  0  0  0  0
    5.6399   -1.6335    5.3924 C   0  0  0  0  0  0  0  0  0  0  0  0
    0.5712   -1.2345    0.6198 H   0  0  0  0  0  0  0  0  0  0  0  0
    0.2463   -0.8370   -1.0609 H   0  0  0  0  0  0  0  0  0  0  0  0
    0.0456    0.4043    0.1803 H   0  0  0  0  0  0  0  0  0  0  0  0
    2.7128   -0.9383   -0.4936 H   0  0  0  0  0  0  0  0  0  0  0  0
    3.0632    1.6515   -4.5119 H   0  0  0  0  0  0  0  0  0  0  0  0
    2.5639    4.3163   -4.8002 H   0  0  0  0  0  0  0  0  0  0  0  0
    0.9984    5.1189   -4.9787 H   0  0  0  0  0  0  0  0  0  0  0  0
    1.1803    3.4226   -5.4450 H   0  0  0  0  0  0  0  0  0  0  0  0
   -0.7707    3.3129   -2.2043 H   0  0  0  0  0  0  0  0  0  0  0  0
   -0.7800    2.7910   -3.8918 H   0  0  0  0  0  0  0  0  0  0  0  0
   -0.9461    4.5092   -3.4943 H   0  0  0  0  0  0  0  0  0  0  0  0
    1.2428    4.6067   -1.2667 H   0  0  0  0  0  0  0  0  0  0  0  0
    1.0727    5.8090   -2.5521 H   0  0  0  0  0  0  0  0  0  0  0  0
    2.6191    4.9798   -2.3091 H   0  0  0  0  0  0  0  0  0  0  0  0
    1.5589   -0.3652    2.3049 H   0  0  0  0  0  0  0  0  0  0  0  0
    2.7820    0.6731    2.9406 H   0  0  0  0  0  0  0  0  0  0  0  0
    3.4032   -1.7204    3.2064 H   0  0  0  0  0  0  0  0  0  0  0  0
    3.2796   -1.9865    1.4966 H   0  0  0  0  0  0  0  0  0  0  0  0
    6.1360    0.2713    0.6765 H   0  0  0  0  0  0  0  0  0  0  0  0
    4.9669   -0.7866   -0.0628 H   0  0  0  0  0  0  0  0  0  0  0  0
    4.3718    1.8409    1.4024 H   0  0  0  0  0  0  0  0  0  0  0  0
    4.2750    1.5839   -0.3071 H   0  0  0  0  0  0  0  0  0  0  0  0
    5.0279    0.7811    3.3740 H   0  0  0  0  0  0  0  0  0  0  0  0
    6.5941    0.1236    2.9221 H   0  0  0  0  0  0  0  0  0  0  0  0
    5.6600   -2.2250    6.2788 H   0  0  0  0  0  0  0  0  0  0  0  0
  1  2  1  0  0  0  0
  1 21  1  0  0  0  0
  1 22  1  0  0  0  0
  1 23  1  0  0  0  0
  2 12  1  0  0  0  0
  2  3  1  0  0  0  0
  2 24  1  0  0  0  0
  3  4  2  0  0  0  0
  3  7  1  0  0  0  0
  4  5  1  0  0  0  0
  5  6  2  0  0  0  0
  5 25  1  0  0  0  0
  6  7  1  0  0  0  0
  6  8  1  0  0  0  0
  8 11  1  0  0  0  0
  8 10  1  0  0  0  0
  8  9  1  0  0  0  0
  9 26  1  0  0  0  0
  9 27  1  0  0  0  0
  9 28  1  0  0  0  0
 10 29  1  0  0  0  0
 10 30  1  0  0  0  0
 10 31  1  0  0  0  0
 11 32  1  0  0  0  0
 11 33  1  0  0  0  0
 11 34  1  0  0  0  0
 12 17  1  0  0  0  0
 12 13  1  0  0  0  0
 13 14  1  0  0  0  0
 13 35  1  0  0  0  0
 13 36  1  0  0  0  0
 14 15  1  0  0  0  0
 14 37  1  0  0  0  0
 14 38  1  0  0  0  0
 15 16  1  0  0  0  0
 15 18  1  0  0  0  0
 16 17  1  0  0  0  0
 16 39  1  0  0  0  0
 16 40  1  0  0  0  0
 17 41  1  0  0  0  0
 17 42  1  0  0  0  0
 18 19  1  0  0  0  0
 18 43  1  0  0  0  0
 18 44  1  0  0  0  0
 19 20  3  0  0  0  0
 20 45  1  0  0  0  0
M  END
$$$$