45491757 45491756
 OpenBabel01151410493D

 18 18  0  0  0  0  0  0  0  0999 V2000
    0.8174    0.5414    0.2750 C   0  0  0  0  0  0  0  0  0  0  0  0
    2.0080    0.4240    0.1769 C   0  0  0  0  0  0  0  0  0  0  0  0
    3.4275    0.2807    0.0589 C   0  0  0  0  0  0  0  0  0  0  0  0
    4.2442    1.4129    0.0679 C   0  0  0  0  0  0  0  0  0  0  0  0
    5.6252    1.2725   -0.0539 C   0  0  0  0  0  0  0  0  0  0  0  0
    6.1852    0.0006   -0.1811 C   0  0  0  0  0  0  0  0  0  0  0  0
    5.3753   -1.1397   -0.1868 C   0  0  0  0  0  0  0  0  0  0  0  0
    3.9911   -0.9947   -0.0707 C   0  0  0  0  0  0  0  0  0  0  0  0
    6.0565   -2.3169   -0.3252 O   0  0  0  0  0  0  0  0  0  0  0  0
    5.3072   -3.5122   -0.1926 C   0  0  0  0  0  0  0  0  0  0  0  0
    4.4831   -3.6456   -1.2608 F   0  0  0  0  0  0  0  0  0  0  0  0
    6.1836   -4.5473   -0.2485 F   0  0  0  0  0  0  0  0  0  0  0  0
   -0.2405    0.6461    0.3599 H   0  0  0  0  0  0  0  0  0  0  0  0
    3.8106    2.4054    0.1630 H   0  0  0  0  0  0  0  0  0  0  0  0
    6.2652    2.1511   -0.0540 H   0  0  0  0  0  0  0  0  0  0  0  0
    7.2638   -0.1021   -0.2800 H   0  0  0  0  0  0  0  0  0  0  0  0
    3.3213   -1.8491   -0.0965 H   0  0  0  0  0  0  0  0  0  0  0  0
    4.7471   -3.5745    0.7467 H   0  0  0  0  0  0  0  0  0  0  0  0
  1  2  3  0  0  0  0
  1 13  1  0  0  0  0
  2  3  1  0  0  0  0
  3  4  2  0  0  0  0
  3  8  1  0  0  0  0
  4  5  1  0  0  0  0
  4 14  1  0  0  0  0
  5  6  2  0  0  0  0
  5 15  1  0  0  0  0
  6  7  1  0  0  0  0
  6 16  1  0  0  0  0
  7  8  2  0  0  0  0
  7  9  1  0  0  0  0
  8 17  1  0  0  0  0
  9 10  1  0  0  0  0
 10 12  1  0  0  0  0
 10 11  1  0  0  0  0
 10 18  1  0  0  0  0
M  END
$$$$