48578662 48578661
 OpenBabel01151410413D

 12 12  0  0  0  0  0  0  0  0999 V2000
    1.0315   -0.1385   -0.3355 Cl  0  0  0  0  0  0  0  0  0  0  0  0
    2.7329   -0.0462   -0.1362 C   0  0  0  0  0  0  0  0  0  0  0  0
    3.3499    1.1708    0.0336 C   0  0  0  0  0  0  0  0  0  0  0  0
    4.7124    1.1149    0.1818 C   0  0  0  0  0  0  0  0  0  0  0  0
    5.4089   -0.0360    0.1631 N   0  0  0  0  0  0  0  0  0  0  0  0
    4.6842   -1.1537   -0.0121 C   0  0  0  0  0  0  0  0  0  0  0  0
    3.3606   -1.2309   -0.1652 N   0  0  0  0  0  0  0  0  0  0  0  0
    5.4067   -2.3815   -0.0573 C   0  0  0  0  0  0  0  0  0  0  0  0
    6.0161   -3.4161   -0.1023 C   0  0  0  0  0  0  0  0  0  0  0  0
    2.8056    2.1043    0.0478 H   0  0  0  0  0  0  0  0  0  0  0  0
    5.3041    2.0149    0.3228 H   0  0  0  0  0  0  0  0  0  0  0  0
    6.5553   -4.3333   -0.1478 H   0  0  0  0  0  0  0  0  0  0  0  0
  1  2  1  0  0  0  0
  2  7  1  0  0  0  0
  2  3  2  0  0  0  0
  3  4  1  0  0  0  0
  3 10  1  0  0  0  0
  4  5  2  0  0  0  0
  4 11  1  0  0  0  0
  5  6  1  0  0  0  0
  6  7  2  0  0  0  0
  6  8  1  0  0  0  0
  8  9  3  0  0  0  0
  9 12  1  0  0  0  0
M  END
$$$$