31352854 31352853
 OpenBabel01151410453D

 29 29  0  0  0  0  0  0  0  0999 V2000
    4.7690   -1.3984    2.9987 C   0  0  0  0  0  0  0  0  0  0  0  0
    4.6965   -0.6600    1.7871 O   0  0  0  0  0  0  0  0  0  0  0  0
    5.1229   -1.4414    0.6647 C   0  0  0  0  0  0  0  0  0  0  0  0
    4.9816   -0.5846   -0.6048 C   0  0  0  0  0  0  0  0  0  0  0  0
    5.3154   -1.2608   -1.8751 N   0  0  0  0  0  0  0  0  0  0  0  0
    5.0848   -0.3826   -3.0411 C   0  0  0  0  0  0  0  0  0  0  0  0
    3.6311   -0.0618   -3.2708 C   0  0  0  0  0  0  0  0  0  0  0  0
    2.9361    1.0672   -2.8774 C   0  0  0  0  0  0  0  0  0  0  0  0
    1.5738    1.0402   -3.2895 C   0  0  0  0  0  0  0  0  0  0  0  0
    1.2747   -0.1009   -3.9986 C   0  0  0  0  0  0  0  0  0  0  0  0
    2.6264   -1.1379   -4.1497 S   0  0  0  0  0  0  0  0  0  0  0  0
    6.6873   -1.7970   -1.9079 C   0  0  0  0  0  0  0  0  0  0  0  0
    7.7410   -0.7792   -1.7435 C   0  0  0  0  0  0  0  0  0  0  0  0
    8.5907    0.0594   -1.6123 C   0  0  0  0  0  0  0  0  0  0  0  0
    4.4592   -0.7443    3.8182 H   0  0  0  0  0  0  0  0  0  0  0  0
    5.7946   -1.7306    3.1860 H   0  0  0  0  0  0  0  0  0  0  0  0
    4.0934   -2.2582    2.9631 H   0  0  0  0  0  0  0  0  0  0  0  0
    4.4969   -2.3379    0.5853 H   0  0  0  0  0  0  0  0  0  0  0  0
    6.1638   -1.7396    0.8261 H   0  0  0  0  0  0  0  0  0  0  0  0
    5.5614    0.3393   -0.4788 H   0  0  0  0  0  0  0  0  0  0  0  0
    3.9333   -0.2647   -0.6273 H   0  0  0  0  0  0  0  0  0  0  0  0
    5.4638   -0.8695   -3.9508 H   0  0  0  0  0  0  0  0  0  0  0  0
    5.6450    0.5570   -2.9439 H   0  0  0  0  0  0  0  0  0  0  0  0
    3.3865    1.8713   -2.3077 H   0  0  0  0  0  0  0  0  0  0  0  0
    0.8519    1.8191   -3.0779 H   0  0  0  0  0  0  0  0  0  0  0  0
    0.3252   -0.3794   -4.4343 H   0  0  0  0  0  0  0  0  0  0  0  0
    6.8453   -2.3272   -2.8560 H   0  0  0  0  0  0  0  0  0  0  0  0
    6.8030   -2.5726   -1.1425 H   0  0  0  0  0  0  0  0  0  0  0  0
    9.3358    0.8133   -1.4957 H   0  0  0  0  0  0  0  0  0  0  0  0
  1  2  1  0  0  0  0
  1 15  1  0  0  0  0
  1 16  1  0  0  0  0
  1 17  1  0  0  0  0
  2  3  1  0  0  0  0
  3  4  1  0  0  0  0
  3 18  1  0  0  0  0
  3 19  1  0  0  0  0
  4  5  1  0  0  0  0
  4 20  1  0  0  0  0
  4 21  1  0  0  0  0
  5 12  1  0  0  0  0
  5  6  1  0  0  0  0
  6  7  1  0  0  0  0
  6 22  1  0  0  0  0
  6 23  1  0  0  0  0
  7  8  2  0  0  0  0
  7 11  1  0  0  0  0
  8  9  1  0  0  0  0
  8 24  1  0  0  0  0
  9 10  2  0  0  0  0
  9 25  1  0  0  0  0
 10 11  1  0  0  0  0
 10 26  1  0  0  0  0
 12 13  1  0  0  0  0
 12 27  1  0  0  0  0
 12 28  1  0  0  0  0
 13 14  3  0  0  0  0
 14 29  1  0  0  0  0
M  END
$$$$