36788519 36788518
 OpenBabel01151410463D

 38 38  0  0  0  0  0  0  0  0999 V2000
    4.2366    1.4266   -0.4518 C   0  0  0  0  0  0  0  0  0  0  0  0
    3.1720    1.4991    0.6323 C   0  0  0  0  0  0  0  0  0  0  0  0
    3.2952    2.7120    1.5575 C   0  0  0  0  0  0  0  0  0  0  0  0
    4.2332    2.5458    2.7598 C   0  0  0  0  0  0  0  0  0  0  0  0
    5.7166    2.4791    2.3977 C   0  0  0  0  0  0  0  0  0  0  0  0
    6.6665    2.5654    3.5952 C   0  0  0  0  0  0  0  0  0  0  0  0
    6.5504    3.7786    4.5249 C   0  0  0  0  0  0  0  0  0  0  0  0
    6.8996    5.1416    3.9130 C   0  0  0  0  0  0  0  0  0  0  0  0
    5.7528    5.7809    3.1270 C   0  0  0  0  0  0  0  0  0  0  0  0
    5.9977    7.2278    2.7896 C   0  0  0  0  0  0  0  0  0  0  0  0
    5.4307    8.3142    3.5416 C   0  0  0  0  0  0  0  0  0  0  0  0
    5.7471    9.5465    3.0187 C   0  0  0  0  0  0  0  0  0  0  0  0
    6.7435    9.4141    1.6402 S   0  0  0  0  0  0  0  0  0  0  0  0
    6.7482    7.7042    1.7251 C   0  0  0  0  0  0  0  0  0  0  0  0
    7.4555    6.9055    0.7747 C   0  0  0  0  0  0  0  0  0  0  0  0
    8.0578    6.2462   -0.0296 C   0  0  0  0  0  0  0  0  0  0  0  0
    3.9675    0.6605   -1.1864 H   0  0  0  0  0  0  0  0  0  0  0  0
    5.2144    1.1557   -0.0508 H   0  0  0  0  0  0  0  0  0  0  0  0
    4.3315    2.3803   -0.9801 H   0  0  0  0  0  0  0  0  0  0  0  0
    3.1594    0.5695    1.2121 H   0  0  0  0  0  0  0  0  0  0  0  0
    2.2002    1.5645    0.1265 H   0  0  0  0  0  0  0  0  0  0  0  0
    2.2946    2.9104    1.9650 H   0  0  0  0  0  0  0  0  0  0  0  0
    3.5702    3.6060    0.9849 H   0  0  0  0  0  0  0  0  0  0  0  0
    3.9523    1.6518    3.3293 H   0  0  0  0  0  0  0  0  0  0  0  0
    4.0504    3.3996    3.4197 H   0  0  0  0  0  0  0  0  0  0  0  0
    5.9737    3.2458    1.6612 H   0  0  0  0  0  0  0  0  0  0  0  0
    5.9141    1.5169    1.9139 H   0  0  0  0  0  0  0  0  0  0  0  0
    7.6957    2.5101    3.2183 H   0  0  0  0  0  0  0  0  0  0  0  0
    6.5221    1.6645    4.2057 H   0  0  0  0  0  0  0  0  0  0  0  0
    7.2599    3.6059    5.3462 H   0  0  0  0  0  0  0  0  0  0  0  0
    5.5633    3.8128    4.9986 H   0  0  0  0  0  0  0  0  0  0  0  0
    7.7981    5.0578    3.2901 H   0  0  0  0  0  0  0  0  0  0  0  0
    7.1663    5.8127    4.7412 H   0  0  0  0  0  0  0  0  0  0  0  0
    4.8277    5.7128    3.7135 H   0  0  0  0  0  0  0  0  0  0  0  0
    5.5655    5.2386    2.1975 H   0  0  0  0  0  0  0  0  0  0  0  0
    4.8052    8.1896    4.4182 H   0  0  0  0  0  0  0  0  0  0  0  0
    5.4396   10.5183    3.3794 H   0  0  0  0  0  0  0  0  0  0  0  0
    8.5968    5.6745   -0.7470 H   0  0  0  0  0  0  0  0  0  0  0  0
  1  2  1  0  0  0  0
  1 17  1  0  0  0  0
  1 18  1  0  0  0  0
  1 19  1  0  0  0  0
  2  3  1  0  0  0  0
  2 20  1  0  0  0  0
  2 21  1  0  0  0  0
  3  4  1  0  0  0  0
  3 22  1  0  0  0  0
  3 23  1  0  0  0  0
  4  5  1  0  0  0  0
  4 24  1  0  0  0  0
  4 25  1  0  0  0  0
  5  6  1  0  0  0  0
  5 26  1  0  0  0  0
  5 27  1  0  0  0  0
  6  7  1  0  0  0  0
  6 28  1  0  0  0  0
  6 29  1  0  0  0  0
  7  8  1  0  0  0  0
  7 30  1  0  0  0  0
  7 31  1  0  0  0  0
  8  9  1  0  0  0  0
  8 32  1  0  0  0  0
  8 33  1  0  0  0  0
  9 10  1  0  0  0  0
  9 34  1  0  0  0  0
  9 35  1  0  0  0  0
 10 11  1  0  0  0  0
 10 14  2  0  0  0  0
 11 12  2  0  0  0  0
 11 36  1  0  0  0  0
 12 13  1  0  0  0  0
 12 37  1  0  0  0  0
 13 14  1  0  0  0  0
 14 15  1  0  0  0  0
 15 16  3  0  0  0  0
 16 38  1  0  0  0  0
M  END
$$$$