15924318 15924317
 OpenBabel01151410443D

 32 33  0  0  1  0  0  0  0  0999 V2000
    4.0221   -2.5050   -1.0437 C   0  0  0  0  0  0  0  0  0  0  0  0
    4.2908   -1.1463   -0.7224 O   0  0  0  0  0  0  0  0  0  0  0  0
    3.2344   -0.2797   -0.7693 C   0  0  0  0  0  0  0  0  0  0  0  0
    3.5544    1.0459   -0.4785 C   0  0  0  0  0  0  0  0  0  0  0  0
    2.5723    2.0416   -0.4981 C   0  0  0  0  0  0  0  0  0  0  0  0
    1.2359    1.7357   -0.8135 C   0  0  0  0  0  0  0  0  0  0  0  0
    0.9262    0.3870   -1.0768 C   0  0  0  0  0  0  0  0  0  0  0  0
    1.9139   -0.6072   -1.0664 C   0  0  0  0  0  0  0  0  0  0  0  0
    0.1306    2.8122   -0.8403 C   0  0  3  0  0  0  0  0  0  0  0  0
   -0.6287    2.8798    0.4927 C   0  0  0  0  0  0  0  0  0  0  0  0
    0.0435    3.1966    1.6909 C   0  0  0  0  0  0  0  0  0  0  0  0
   -0.6400    3.2674    2.9079 C   0  0  0  0  0  0  0  0  0  0  0  0
   -2.0100    3.0285    2.9533 C   0  0  0  0  0  0  0  0  0  0  0  0
   -2.6980    2.7192    1.7839 C   0  0  0  0  0  0  0  0  0  0  0  0
   -2.0147    2.6460    0.5666 C   0  0  0  0  0  0  0  0  0  0  0  0
    0.6252    4.1128   -1.2263 C   0  0  0  0  0  0  0  0  0  0  0  0
    1.0328    5.1848   -1.5443 C   0  0  0  0  0  0  0  0  0  0  0  0
   -0.7818    2.4286   -1.8848 O   0  0  0  0  0  0  0  0  0  0  0  0
    3.6661   -2.6028   -2.0744 H   0  0  0  0  0  0  0  0  0  0  0  0
    3.3130   -2.9462   -0.3360 H   0  0  0  0  0  0  0  0  0  0  0  0
    4.9617   -3.0594   -0.9617 H   0  0  0  0  0  0  0  0  0  0  0  0
    4.5809    1.3087   -0.2330 H   0  0  0  0  0  0  0  0  0  0  0  0
    2.8721    3.0594   -0.2584 H   0  0  0  0  0  0  0  0  0  0  0  0
   -0.1015    0.0982   -1.2954 H   0  0  0  0  0  0  0  0  0  0  0  0
    1.6124   -1.6247   -1.2897 H   0  0  0  0  0  0  0  0  0  0  0  0
    1.1130    3.3940    1.6870 H   0  0  0  0  0  0  0  0  0  0  0  0
   -0.1001    3.5110    3.8192 H   0  0  0  0  0  0  0  0  0  0  0  0
   -2.5419    3.0853    3.8989 H   0  0  0  0  0  0  0  0  0  0  0  0
   -3.7687    2.5361    1.8143 H   0  0  0  0  0  0  0  0  0  0  0  0
   -2.5804    2.4068   -0.3321 H   0  0  0  0  0  0  0  0  0  0  0  0
    1.3882    6.1487   -1.8272 H   0  0  0  0  0  0  0  0  0  0  0  0
   -0.2439    2.3866   -2.6932 H   0  0  0  0  0  0  0  0  0  0  0  0
  1  2  1  0  0  0  0
  1 19  1  0  0  0  0
  1 20  1  0  0  0  0
  1 21  1  0  0  0  0
  2  3  1  0  0  0  0
  3  4  2  0  0  0  0
  3  8  1  0  0  0  0
  4  5  1  0  0  0  0
  4 22  1  0  0  0  0
  5  6  2  0  0  0  0
  5 23  1  0  0  0  0
  6  7  1  0  0  0  0
  6  9  1  0  0  0  0
  7  8  2  0  0  0  0
  7 24  1  0  0  0  0
  8 25  1  0  0  0  0
  9 18  1  0  0  0  0
  9 16  1  0  0  0  0
  9 10  1  0  0  0  0
 10 11  2  0  0  0  0
 10 15  1  0  0  0  0
 11 12  1  0  0  0  0
 11 26  1  0  0  0  0
 12 13  2  0  0  0  0
 12 27  1  0  0  0  0
 13 14  1  0  0  0  0
 13 28  1  0  0  0  0
 14 15  2  0  0  0  0
 14 29  1  0  0  0  0
 15 30  1  0  0  0  0
 16 17  3  0  0  0  0
 17 31  1  0  0  0  0
 18 32  1  0  0  0  0
M  END
$$$$