43472682 43472681
 OpenBabel01151410433D

 11 11  0  0  0  0  0  0  0  0999 V2000
    1.0111    0.0197    0.0508 C   0  0  0  0  0  0  0  0  0  0  0  0
    2.2118    0.0140    0.0530 C   0  0  0  0  0  0  0  0  0  0  0  0
    3.6331    0.0059    0.0558 C   0  0  0  0  0  0  0  0  0  0  0  0
    4.4522    1.1078    0.0587 C   0  0  0  0  0  0  0  0  0  0  0  0
    5.7281    0.6220    0.0611 N   0  0  0  0  0  0  0  0  0  0  0  0
    6.5985    1.1438    0.0637 H   0  0  0  0  0  0  0  0  0  0  0  0
    5.7917   -0.7220    0.0596 N   0  0  0  0  0  0  0  0  0  0  0  0
    4.5077   -1.0957    0.0564 C   0  0  0  0  0  0  0  0  0  0  0  0
   -0.0542    0.0246    0.0489 H   0  0  0  0  0  0  0  0  0  0  0  0
    4.2500    2.1688    0.0595 H   0  0  0  0  0  0  0  0  0  0  0  0
    4.2663   -2.1502    0.0547 H   0  0  0  0  0  0  0  0  0  0  0  0
  1  2  3  0  0  0  0
  1  9  1  0  0  0  0
  2  3  1  0  0  0  0
  3  4  2  0  0  0  0
  3  8  1  0  0  0  0
  4  5  1  0  0  0  0
  4 10  1  0  0  0  0
  5  7  1  0  0  0  0
  5  6  1  0  0  0  0
  7  8  2  0  0  0  0
  8 11  1  0  0  0  0
M  END
$$$$