526983 526982
 OpenBabel01151410423D

 21 21  0  0  1  0  0  0  0  0999 V2000
    0.9920   -0.8050   -0.0188 C   0  0  0  0  0  0  0  0  0  0  0  0
    2.1545   -0.4999   -0.0568 C   0  0  0  0  0  0  0  0  0  0  0  0
    3.5826   -0.1160   -0.0971 C   0  0  3  0  0  0  0  0  0  0  0  0
    4.0192    0.2331   -1.5133 C   0  0  0  0  0  0  0  0  0  0  0  0
    4.3703    1.5458   -1.8802 C   0  0  0  0  0  0  0  0  0  0  0  0
    4.7606    1.8532   -3.1879 C   0  0  0  0  0  0  0  0  0  0  0  0
    4.8046    0.8561   -4.1588 C   0  0  0  0  0  0  0  0  0  0  0  0
    4.4540   -0.4476   -3.8212 C   0  0  0  0  0  0  0  0  0  0  0  0
    4.0645   -0.7464   -2.5160 C   0  0  0  0  0  0  0  0  0  0  0  0
    3.7224   -2.0133   -2.2398 F   0  0  0  0  0  0  0  0  0  0  0  0
    3.7420    1.0318    0.7504 O   0  0  0  0  0  0  0  0  0  0  0  0
    4.4537   -1.2179    0.5212 C   0  0  0  0  0  0  0  0  0  0  0  0
   -0.0391   -1.0739    0.0036 H   0  0  0  0  0  0  0  0  0  0  0  0
    4.3413    2.3477   -1.1440 H   0  0  0  0  0  0  0  0  0  0  0  0
    5.0275    2.8757   -3.4449 H   0  0  0  0  0  0  0  0  0  0  0  0
    5.1066    1.0955   -5.1748 H   0  0  0  0  0  0  0  0  0  0  0  0
    4.4761   -1.2371   -4.5658 H   0  0  0  0  0  0  0  0  0  0  0  0
    3.2734    0.8296    1.5774 H   0  0  0  0  0  0  0  0  0  0  0  0
    4.1977   -1.3731    1.5770 H   0  0  0  0  0  0  0  0  0  0  0  0
    5.5138   -0.9366    0.4975 H   0  0  0  0  0  0  0  0  0  0  0  0
    4.3462   -2.1827    0.0155 H   0  0  0  0  0  0  0  0  0  0  0  0
  1  2  3  0  0  0  0
  1 13  1  0  0  0  0
  2  3  1  0  0  0  0
  3 12  1  0  0  0  0
  3 11  1  0  0  0  0
  3  4  1  0  0  0  0
  4  5  2  0  0  0  0
  4  9  1  0  0  0  0
  5  6  1  0  0  0  0
  5 14  1  0  0  0  0
  6  7  2  0  0  0  0
  6 15  1  0  0  0  0
  7  8  1  0  0  0  0
  7 16  1  0  0  0  0
  8  9  2  0  0  0  0
  8 17  1  0  0  0  0
  9 10  1  0  0  0  0
 11 18  1  0  0  0  0
 12 19  1  0  0  0  0
 12 20  1  0  0  0  0
 12 21  1  0  0  0  0
M  END
$$$$