8307672 8307671
 OpenBabel01151410473D

 32 33  0  0  1  0  0  0  0  0999 V2000
    0.8562    0.8133   -0.3178 C   0  0  0  0  0  0  0  0  0  0  0  0
    2.0180    0.5041   -0.3198 C   0  0  0  0  0  0  0  0  0  0  0  0
    3.4319    0.1227   -0.3234 C   0  0  0  0  0  0  0  0  0  0  0  0
    4.2122    1.2306    0.1203 O   0  0  0  0  0  0  0  0  0  0  0  0
    5.5898    0.8812    0.2963 C   0  0  3  0  0  0  0  0  0  0  0  0
    6.2545    0.7997   -1.0086 N   0  0  0  0  0  0  0  0  0  0  0  0
    6.3727    1.8835   -1.8563 C   0  0  0  0  0  0  0  0  0  0  0  0
    7.0219    1.4828   -2.9960 C   0  0  0  0  0  0  0  0  0  0  0  0
    7.2819    0.1041   -2.8525 C   0  0  0  0  0  0  0  0  0  0  0  0
    6.7919   -0.3240   -1.6240 C   0  0  0  0  0  0  0  0  0  0  0  0
    6.7697   -1.7029   -1.1189 C   0  0  0  0  0  0  0  0  0  0  0  0
    6.3639   -2.7372   -1.9792 C   0  0  0  0  0  0  0  0  0  0  0  0
    6.3421   -4.0677   -1.5511 C   0  0  0  0  0  0  0  0  0  0  0  0
    6.7211   -4.3805   -0.2491 C   0  0  0  0  0  0  0  0  0  0  0  0
    7.1395   -3.3688    0.6130 C   0  0  0  0  0  0  0  0  0  0  0  0
    7.1850   -2.0415    0.1730 C   0  0  0  0  0  0  0  0  0  0  0  0
    6.2387    1.9305    1.1986 C   0  0  0  0  0  0  0  0  0  0  0  0
   -0.1682    1.0966   -0.3156 H   0  0  0  0  0  0  0  0  0  0  0  0
    3.7342   -0.1709   -1.3336 H   0  0  0  0  0  0  0  0  0  0  0  0
    3.5770   -0.7296    0.3519 H   0  0  0  0  0  0  0  0  0  0  0  0
    5.6531   -0.0819    0.8053 H   0  0  0  0  0  0  0  0  0  0  0  0
    5.9737    2.8510   -1.5781 H   0  0  0  0  0  0  0  0  0  0  0  0
    7.2610    2.1086   -3.8465 H   0  0  0  0  0  0  0  0  0  0  0  0
    7.7641   -0.5309   -3.5855 H   0  0  0  0  0  0  0  0  0  0  0  0
    6.0602   -2.5131   -3.0025 H   0  0  0  0  0  0  0  0  0  0  0  0
    6.0375   -4.8526   -2.2358 H   0  0  0  0  0  0  0  0  0  0  0  0
    6.7005   -5.4134    0.0889 H   0  0  0  0  0  0  0  0  0  0  0  0
    7.4476   -3.6162    1.6268 H   0  0  0  0  0  0  0  0  0  0  0  0
    7.5625   -1.2829    0.8508 H   0  0  0  0  0  0  0  0  0  0  0  0
    6.0877    2.9451    0.8134 H   0  0  0  0  0  0  0  0  0  0  0  0
    7.3145    1.7572    1.3074 H   0  0  0  0  0  0  0  0  0  0  0  0
    5.7790    1.9101    2.1925 H   0  0  0  0  0  0  0  0  0  0  0  0
  1  2  3  0  0  0  0
  1 18  1  0  0  0  0
  2  3  1  0  0  0  0
  3  4  1  0  0  0  0
  3 19  1  0  0  0  0
  3 20  1  0  0  0  0
  4  5  1  0  0  0  0
  5 17  1  0  0  0  0
  5  6  1  0  0  0  0
  5 21  1  0  0  0  0
  6  7  1  0  0  0  0
  6 10  1  0  0  0  0
  7  8  2  0  0  0  0
  7 22  1  0  0  0  0
  8  9  1  0  0  0  0
  8 23  1  0  0  0  0
  9 10  2  0  0  0  0
  9 24  1  0  0  0  0
 10 11  1  0  0  0  0
 11 12  2  0  0  0  0
 11 16  1  0  0  0  0
 12 13  1  0  0  0  0
 12 25  1  0  0  0  0
 13 14  2  0  0  0  0
 13 26  1  0  0  0  0
 14 15  1  0  0  0  0
 14 27  1  0  0  0  0
 15 16  2  0  0  0  0
 15 28  1  0  0  0  0
 16 29  1  0  0  0  0
 17 30  1  0  0  0  0
 17 31  1  0  0  0  0
 17 32  1  0  0  0  0
M  END
$$$$