31231405 31231404
 OpenBabel01151410483D

 29 29  0  0  1  0  0  0  0  0999 V2000
    4.2486   -2.2989   -3.4707 C   0  0  0  0  0  0  0  0  0  0  0  0
    4.8286   -1.9827   -2.4683 C   0  0  0  0  0  0  0  0  0  0  0  0
    5.5426   -1.6002   -1.2456 C   0  0  0  0  0  0  0  0  0  0  0  0
    6.1551   -0.3294   -1.4529 O   0  0  0  0  0  0  0  0  0  0  0  0
    6.8827    0.1034   -0.3084 C   0  0  1  0  0  0  0  0  0  0  0  0
    6.2498    0.0270    0.5842 H   0  0  0  0  0  0  0  0  0  0  0  0
    8.0352   -0.7132   -0.0728 O   0  0  0  0  0  0  0  0  0  0  0  0
    8.9899   -0.6725   -1.1575 C   0  0  3  0  0  0  0  0  0  0  0  0
   10.1247   -1.6319   -0.7856 C   0  0  0  0  0  0  0  0  0  0  0  0
    9.5963   -2.9517   -0.6299 O   0  0  0  0  0  0  0  0  0  0  0  0
    9.5041    0.7521   -1.4001 C   0  0  1  0  0  0  0  0  0  0  0  0
   10.1790    0.7780   -2.2633 H   0  0  0  0  0  0  0  0  0  0  0  0
    8.3298    1.7162   -1.6095 C   0  0  1  0  0  0  0  0  0  0  0  0
    7.8613    1.5193   -2.5803 H   0  0  0  0  0  0  0  0  0  0  0  0
    7.2910    1.5778   -0.4865 C   0  0  3  0  0  0  0  0  0  0  0  0
    7.8517    2.1163    0.7275 O   0  0  0  0  0  0  0  0  0  0  0  0
    8.8469    3.0600   -1.6317 O   0  0  0  0  0  0  0  0  0  0  0  0
   10.2670    1.2074   -0.2672 O   0  0  0  0  0  0  0  0  0  0  0  0
    3.7369   -2.5773   -4.3638 H   0  0  0  0  0  0  0  0  0  0  0  0
    6.3054   -2.3520   -1.0149 H   0  0  0  0  0  0  0  0  0  0  0  0
    4.8418   -1.5390   -0.4057 H   0  0  0  0  0  0  0  0  0  0  0  0
    8.4929   -1.0560   -2.0573 H   0  0  0  0  0  0  0  0  0  0  0  0
   10.5937   -1.3590    0.1651 H   0  0  0  0  0  0  0  0  0  0  0  0
   10.8905   -1.6623   -1.5661 H   0  0  0  0  0  0  0  0  0  0  0  0
    8.8794   -2.8628    0.0266 H   0  0  0  0  0  0  0  0  0  0  0  0
    6.4171    2.1937   -0.7263 H   0  0  0  0  0  0  0  0  0  0  0  0
    8.6412    1.5670    0.9308 H   0  0  0  0  0  0  0  0  0  0  0  0
    8.6170    3.4502   -0.7623 H   0  0  0  0  0  0  0  0  0  0  0  0
   10.5570    2.1113   -0.5088 H   0  0  0  0  0  0  0  0  0  0  0  0
  1  2  3  0  0  0  0
  1 19  1  0  0  0  0
  2  3  1  0  0  0  0
  3  4  1  0  0  0  0
  3 20  1  0  0  0  0
  3 21  1  0  0  0  0
  4  5  1  0  0  0  0
  5 15  1  0  0  0  0
  5  7  1  0  0  0  0
  5  6  1  1  0  0  0
  7  8  1  0  0  0  0
  8 11  1  0  0  0  0
  8  9  1  0  0  0  0
  8 22  1  0  0  0  0
  9 10  1  0  0  0  0
  9 23  1  0  0  0  0
  9 24  1  0  0  0  0
 10 25  1  0  0  0  0
 11 13  1  0  0  0  0
 11 18  1  0  0  0  0
 11 12  1  6  0  0  0
 13 15  1  0  0  0  0
 13 17  1  0  0  0  0
 13 14  1  6  0  0  0
 15 16  1  0  0  0  0
 15 26  1  0  0  0  0
 16 27  1  0  0  0  0
 17 28  1  0  0  0  0
 18 29  1  0  0  0  0
M  END
$$$$