48229117 48229116
 OpenBabel01151410473D

 40 42  0  0  0  0  0  0  0  0999 V2000
    2.6368    0.7791    1.4129 C   0  0  0  0  0  0  0  0  0  0  0  0
    2.7863    0.1168    0.4227 C   0  0  0  0  0  0  0  0  0  0  0  0
    2.9724   -0.6739   -0.7560 C   0  0  0  0  0  0  0  0  0  0  0  0
    2.2547   -0.3824   -1.9143 C   0  0  0  0  0  0  0  0  0  0  0  0
    2.4717   -1.1357   -3.0646 C   0  0  0  0  0  0  0  0  0  0  0  0
    3.3923   -2.1876   -3.0467 C   0  0  0  0  0  0  0  0  0  0  0  0
    4.0897   -2.5311   -1.8788 C   0  0  0  0  0  0  0  0  0  0  0  0
    3.8894   -1.7331   -0.7451 C   0  0  0  0  0  0  0  0  0  0  0  0
    5.0476   -3.5490   -1.9478 N   0  0  0  0  0  0  0  0  0  0  0  0
    5.4557   -4.2270   -0.7236 C   0  0  0  0  0  0  0  0  0  0  0  0
    6.4539   -5.3143   -1.0560 C   0  0  0  0  0  0  0  0  0  0  0  0
    6.1607   -6.6684   -0.7834 C   0  0  0  0  0  0  0  0  0  0  0  0
    7.0891   -7.6744   -1.0682 C   0  0  0  0  0  0  0  0  0  0  0  0
    8.2991   -7.3049   -1.6174 C   0  0  0  0  0  0  0  0  0  0  0  0
    8.6018   -5.9857   -1.8965 C   0  0  0  0  0  0  0  0  0  0  0  0
    7.6935   -4.9763   -1.6280 C   0  0  0  0  0  0  0  0  0  0  0  0
    9.9381   -5.9001   -2.5266 C   0  0  0  0  0  0  0  0  0  0  0  0
   10.4272   -7.3537   -2.3253 C   0  0  0  0  0  0  0  0  0  0  0  0
    9.2942   -8.1863   -1.9421 O   0  0  0  0  0  0  0  0  0  0  0  0
   11.0002   -7.9276   -3.6222 C   0  0  0  0  0  0  0  0  0  0  0  0
   11.4722   -7.4456   -1.2065 C   0  0  0  0  0  0  0  0  0  0  0  0
    2.5035    1.3681    2.2901 H   0  0  0  0  0  0  0  0  0  0  0  0
    1.5446    0.4403   -1.9322 H   0  0  0  0  0  0  0  0  0  0  0  0
    1.9344   -0.8996   -3.9791 H   0  0  0  0  0  0  0  0  0  0  0  0
    3.5614   -2.7453   -3.9649 H   0  0  0  0  0  0  0  0  0  0  0  0
    4.4516   -1.9139    0.1656 H   0  0  0  0  0  0  0  0  0  0  0  0
    4.8542   -4.2080   -2.6984 H   0  0  0  0  0  0  0  0  0  0  0  0
    4.5801   -4.6592   -0.2237 H   0  0  0  0  0  0  0  0  0  0  0  0
    5.9399   -3.5362   -0.0234 H   0  0  0  0  0  0  0  0  0  0  0  0
    5.2043   -6.9453   -0.3448 H   0  0  0  0  0  0  0  0  0  0  0  0
    6.8706   -8.7160   -0.8606 H   0  0  0  0  0  0  0  0  0  0  0  0
    7.9276   -3.9406   -1.8610 H   0  0  0  0  0  0  0  0  0  0  0  0
   10.5850   -5.1653   -2.0376 H   0  0  0  0  0  0  0  0  0  0  0  0
    9.8334   -5.6407   -3.5857 H   0  0  0  0  0  0  0  0  0  0  0  0
   10.2405   -7.9373   -4.4122 H   0  0  0  0  0  0  0  0  0  0  0  0
   11.3131   -8.9687   -3.4836 H   0  0  0  0  0  0  0  0  0  0  0  0
   11.8604   -7.3484   -3.9729 H   0  0  0  0  0  0  0  0  0  0  0  0
   11.0669   -7.0776   -0.2571 H   0  0  0  0  0  0  0  0  0  0  0  0
   12.3692   -6.8658   -1.4473 H   0  0  0  0  0  0  0  0  0  0  0  0
   11.7668   -8.4870   -1.0338 H   0  0  0  0  0  0  0  0  0  0  0  0
  1  2  3  0  0  0  0
  1 22  1  0  0  0  0
  2  3  1  0  0  0  0
  3  4  2  0  0  0  0
  3  8  1  0  0  0  0
  4  5  1  0  0  0  0
  4 23  1  0  0  0  0
  5  6  2  0  0  0  0
  5 24  1  0  0  0  0
  6  7  1  0  0  0  0
  6 25  1  0  0  0  0
  7  8  2  0  0  0  0
  7  9  1  0  0  0  0
  8 26  1  0  0  0  0
  9 10  1  0  0  0  0
  9 27  1  0  0  0  0
 10 11  1  0  0  0  0
 10 28  1  0  0  0  0
 10 29  1  0  0  0  0
 11 12  2  0  0  0  0
 11 16  1  0  0  0  0
 12 13  1  0  0  0  0
 12 30  1  0  0  0  0
 13 14  2  0  0  0  0
 13 31  1  0  0  0  0
 14 15  1  0  0  0  0
 14 19  1  0  0  0  0
 15 16  2  0  0  0  0
 15 17  1  0  0  0  0
 16 32  1  0  0  0  0
 17 18  1  0  0  0  0
 17 33  1  0  0  0  0
 17 34  1  0  0  0  0
 18 19  1  0  0  0  0
 18 21  1  0  0  0  0
 18 20  1  0  0  0  0
 20 35  1  0  0  0  0
 20 36  1  0  0  0  0
 20 37  1  0  0  0  0
 21 38  1  0  0  0  0
 21 39  1  0  0  0  0
 21 40  1  0  0  0  0
M  END
$$$$