46342618 46342617
 OpenBabel01151410453D

 26 27  0  0  0  0  0  0  0  0999 V2000
    0.9937    0.0873    0.0484 C   0  0  0  0  0  0  0  0  0  0  0  0
    2.1839    0.0873    0.0484 C   0  0  0  0  0  0  0  0  0  0  0  0
    3.6279    0.0873    0.0484 C   0  0  0  0  0  0  0  0  0  0  0  0
    4.1519    1.1489    1.0459 C   0  0  0  0  0  0  0  0  0  0  0  0
    5.5171    0.6513    1.5250 C   0  0  0  0  0  0  0  0  0  0  0  0
    5.5812   -0.8323    1.1723 C   0  0  0  0  0  0  0  0  0  0  0  0
    4.1809   -1.2018    0.6950 C   0  0  0  0  0  0  0  0  0  0  0  0
    4.1938    0.2551   -1.3716 C   0  0  0  0  0  0  0  0  0  0  0  0
    3.7669   -0.5832   -2.4083 C   0  0  0  0  0  0  0  0  0  0  0  0
    4.3115   -0.4341   -3.6814 C   0  0  0  0  0  0  0  0  0  0  0  0
    5.2741    0.5408   -3.8992 C   0  0  0  0  0  0  0  0  0  0  0  0
    5.6534    1.3289   -2.8284 C   0  0  0  0  0  0  0  0  0  0  0  0
    5.1418    1.2056   -1.5840 N   0  0  0  0  0  0  0  0  0  0  0  0
   -0.0720    0.0946    0.0487 H   0  0  0  0  0  0  0  0  0  0  0  0
    3.4894    1.2164    1.9205 H   0  0  0  0  0  0  0  0  0  0  0  0
    4.2088    2.1594    0.6264 H   0  0  0  0  0  0  0  0  0  0  0  0
    6.3317    1.1947    1.0337 H   0  0  0  0  0  0  0  0  0  0  0  0
    5.6275    0.8089    2.6035 H   0  0  0  0  0  0  0  0  0  0  0  0
    6.3118   -0.9932    0.3709 H   0  0  0  0  0  0  0  0  0  0  0  0
    5.8926   -1.4430    2.0256 H   0  0  0  0  0  0  0  0  0  0  0  0
    4.2016   -2.0646    0.0205 H   0  0  0  0  0  0  0  0  0  0  0  0
    3.5756   -1.4908    1.5652 H   0  0  0  0  0  0  0  0  0  0  0  0
    3.0158   -1.3476   -2.2315 H   0  0  0  0  0  0  0  0  0  0  0  0
    3.9851   -1.0757   -4.4944 H   0  0  0  0  0  0  0  0  0  0  0  0
    5.7182    0.6833   -4.8773 H   0  0  0  0  0  0  0  0  0  0  0  0
    6.4040    2.1054   -2.9434 H   0  0  0  0  0  0  0  0  0  0  0  0
  1  2  3  0  0  0  0
  1 14  1  0  0  0  0
  2  3  1  0  0  0  0
  3  7  1  0  0  0  0
  3  4  1  0  0  0  0
  3  8  1  0  0  0  0
  4  5  1  0  0  0  0
  4 15  1  0  0  0  0
  4 16  1  0  0  0  0
  5  6  1  0  0  0  0
  5 17  1  0  0  0  0
  5 18  1  0  0  0  0
  6  7  1  0  0  0  0
  6 19  1  0  0  0  0
  6 20  1  0  0  0  0
  7 21  1  0  0  0  0
  7 22  1  0  0  0  0
  8  9  2  0  0  0  0
  8 13  1  0  0  0  0
  9 10  1  0  0  0  0
  9 23  1  0  0  0  0
 10 11  2  0  0  0  0
 10 24  1  0  0  0  0
 11 12  1  0  0  0  0
 11 25  1  0  0  0  0
 12 13  2  0  0  0  0
 12 26  1  0  0  0  0
M  END
$$$$