43468757 43468756
 OpenBabel01151410473D

 16 16  0  0  0  0  0  0  0  0999 V2000
    1.1097    0.3063    0.0763 C   0  0  0  0  0  0  0  0  0  0  0  0
    2.3092    0.2369    0.0765 C   0  0  0  0  0  0  0  0  0  0  0  0
    3.7291    0.1523    0.0768 C   0  0  0  0  0  0  0  0  0  0  0  0
    4.6853    1.1948    0.0740 C   0  0  0  0  0  0  0  0  0  0  0  0
    4.4744    2.6603    0.0701 C   0  0  0  0  0  0  0  0  0  0  0  0
    5.9331    0.7051    0.0752 N   0  0  0  0  0  0  0  0  0  0  0  0
    5.7969   -0.6719    0.0789 O   0  0  0  0  0  0  0  0  0  0  0  0
    4.4760   -1.0003    0.0799 C   0  0  0  0  0  0  0  0  0  0  0  0
    4.1698   -2.4418    0.0838 C   0  0  0  0  0  0  0  0  0  0  0  0
    0.0467    0.3660    0.0762 H   0  0  0  0  0  0  0  0  0  0  0  0
    3.4107    2.9170    0.0722 H   0  0  0  0  0  0  0  0  0  0  0  0
    4.9260    3.1098   -0.8203 H   0  0  0  0  0  0  0  0  0  0  0  0
    4.9309    3.1153    0.9552 H   0  0  0  0  0  0  0  0  0  0  0  0
    3.0909   -2.6232    0.0896 H   0  0  0  0  0  0  0  0  0  0  0  0
    4.5980   -2.9209    0.9697 H   0  0  0  0  0  0  0  0  0  0  0  0
    4.5891   -2.9237   -0.8048 H   0  0  0  0  0  0  0  0  0  0  0  0
  1  2  3  0  0  0  0
  1 10  1  0  0  0  0
  2  3  1  0  0  0  0
  3  8  2  0  0  0  0
  3  4  1  0  0  0  0
  4  6  2  0  0  0  0
  4  5  1  0  0  0  0
  5 11  1  0  0  0  0
  5 12  1  0  0  0  0
  5 13  1  0  0  0  0
  6  7  1  0  0  0  0
  7  8  1  0  0  0  0
  8  9  1  0  0  0  0
  9 14  1  0  0  0  0
  9 15  1  0  0  0  0
  9 16  1  0  0  0  0
M  END
$$$$