42820363 42820362
 OpenBabel01151410423D

 22 23  0  0  0  0  0  0  0  0999 V2000
    1.0439    0.2348    0.1066 C   0  0  0  0  0  0  0  0  0  0  0  0
    2.2399    0.1323    0.0709 C   0  0  0  0  0  0  0  0  0  0  0  0
    3.6635    0.0127    0.0222 C   0  0  0  0  0  0  0  0  0  0  0  0
    4.2761   -1.2269    0.0144 C   0  0  0  0  0  0  0  0  0  0  0  0
    5.6716   -1.2811   -0.0458 C   0  0  0  0  0  0  0  0  0  0  0  0
    6.3484   -2.6242   -0.0556 C   0  0  0  0  0  0  0  0  0  0  0  0
    6.4018   -0.0677   -0.0971 C   0  0  0  0  0  0  0  0  0  0  0  0
    5.6666    1.1425   -0.0795 C   0  0  0  0  0  0  0  0  0  0  0  0
    4.3267    1.1840   -0.0210 N   0  0  0  0  0  0  0  0  0  0  0  0
    6.3565    2.3462   -0.1265 C   0  0  0  0  0  0  0  0  0  0  0  0
    7.7501    2.3976   -0.1941 C   0  0  0  0  0  0  0  0  0  0  0  0
    8.4804    1.2182   -0.2149 C   0  0  0  0  0  0  0  0  0  0  0  0
    7.8131   -0.0053   -0.1658 C   0  0  0  0  0  0  0  0  0  0  0  0
   -0.0158    0.3385    0.1357 H   0  0  0  0  0  0  0  0  0  0  0  0
    3.6777   -2.1314    0.0522 H   0  0  0  0  0  0  0  0  0  0  0  0
    5.6208   -3.4418   -0.0110 H   0  0  0  0  0  0  0  0  0  0  0  0
    7.0074   -2.7247    0.8128 H   0  0  0  0  0  0  0  0  0  0  0  0
    6.9284   -2.7518   -0.9751 H   0  0  0  0  0  0  0  0  0  0  0  0
    5.7895    3.2746   -0.1112 H   0  0  0  0  0  0  0  0  0  0  0  0
    8.2564    3.3585   -0.2311 H   0  0  0  0  0  0  0  0  0  0  0  0
    9.5655    1.2472   -0.2692 H   0  0  0  0  0  0  0  0  0  0  0  0
    8.4094   -0.9142   -0.1834 H   0  0  0  0  0  0  0  0  0  0  0  0
  1  2  3  0  0  0  0
  1 14  1  0  0  0  0
  2  3  1  0  0  0  0
  3  4  2  0  0  0  0
  3  9  1  0  0  0  0
  4  5  1  0  0  0  0
  4 15  1  0  0  0  0
  5  7  2  0  0  0  0
  5  6  1  0  0  0  0
  6 16  1  0  0  0  0
  6 17  1  0  0  0  0
  6 18  1  0  0  0  0
  7 13  1  0  0  0  0
  7  8  1  0  0  0  0
  8 10  1  0  0  0  0
  8  9  2  0  0  0  0
 10 11  2  0  0  0  0
 10 19  1  0  0  0  0
 11 12  1  0  0  0  0
 11 20  1  0  0  0  0
 12 13  2  0  0  0  0
 12 21  1  0  0  0  0
 13 22  1  0  0  0  0
M  END
$$$$