4450366 4450365
 OpenBabel01151410453D

 35 35  0  0  1  0  0  0  0  0999 V2000
    0.9491    0.7130   -0.0544 Cl  0  0  0  0  0  0  0  0  0  0  0  0
    0.9483    2.4834    0.1432 C   0  0  0  0  0  0  0  0  0  0  0  0
    1.6618    3.2721   -0.9715 C   0  0  3  0  0  0  0  0  0  0  0  0
    3.1075    2.8074   -1.2440 C   0  0  0  0  0  0  0  0  0  0  0  0
    3.7736    3.5176   -2.2933 O   0  0  0  0  0  0  0  0  0  0  0  0
    4.4272    4.7640   -2.0266 C   0  0  3  0  0  0  0  0  0  0  0  0
    5.4436    4.6183   -0.9574 C   0  0  0  0  0  0  0  0  0  0  0  0
    6.2710    4.5097   -0.0922 C   0  0  0  0  0  0  0  0  0  0  0  0
    5.1724    5.1415   -3.3374 C   0  0  0  0  0  0  0  0  0  0  0  0
    4.2838    5.2466   -4.5740 C   0  0  0  0  0  0  0  0  0  0  0  0
    3.4463    5.8843   -1.6599 C   0  0  0  0  0  0  0  0  0  0  0  0
    0.9377    3.5640   -2.1770 O   0  0  0  0  0  0  0  0  0  0  0  0
   -0.0505    2.6651   -2.6628 C   0  0  0  0  0  0  0  0  0  0  0  0
    0.4321    1.7035   -3.6978 C   0  0  3  0  0  0  0  0  0  0  0  0
    1.7530    1.8329   -4.4059 C   0  0  0  0  0  0  0  0  0  0  0  0
    1.5531    0.8921   -3.3384 O   0  0  0  0  0  0  0  0  0  0  0  0
    1.4492    2.6705    1.0988 H   0  0  0  0  0  0  0  0  0  0  0  0
   -0.0934    2.8032    0.2441 H   0  0  0  0  0  0  0  0  0  0  0  0
    1.7544    4.2668   -0.5291 H   0  0  0  0  0  0  0  0  0  0  0  0
    3.0983    1.7665   -1.5747 H   0  0  0  0  0  0  0  0  0  0  0  0
    3.6966    2.8223   -0.3211 H   0  0  0  0  0  0  0  0  0  0  0  0
    7.0092    4.4118    0.6692 H   0  0  0  0  0  0  0  0  0  0  0  0
    5.9373    4.3825   -3.5534 H   0  0  0  0  0  0  0  0  0  0  0  0
    5.7068    6.0917   -3.2055 H   0  0  0  0  0  0  0  0  0  0  0  0
    4.8676    5.6247   -5.4203 H   0  0  0  0  0  0  0  0  0  0  0  0
    3.4430    5.9287   -4.4207 H   0  0  0  0  0  0  0  0  0  0  0  0
    3.8906    4.2676   -4.8614 H   0  0  0  0  0  0  0  0  0  0  0  0
    3.9024    6.8742   -1.7832 H   0  0  0  0  0  0  0  0  0  0  0  0
    3.1378    5.8235   -0.6104 H   0  0  0  0  0  0  0  0  0  0  0  0
    2.5397    5.8441   -2.2730 H   0  0  0  0  0  0  0  0  0  0  0  0
   -0.7889    3.3040   -3.1622 H   0  0  0  0  0  0  0  0  0  0  0  0
   -0.6033    2.1627   -1.8675 H   0  0  0  0  0  0  0  0  0  0  0  0
   -0.3851    1.2181   -4.2147 H   0  0  0  0  0  0  0  0  0  0  0  0
    2.3686    2.6981   -4.2095 H   0  0  0  0  0  0  0  0  0  0  0  0
    1.8476    1.4335   -5.4069 H   0  0  0  0  0  0  0  0  0  0  0  0
  1  2  1  0  0  0  0
  2  3  1  0  0  0  0
  2 17  1  0  0  0  0
  2 18  1  0  0  0  0
  3 12  1  0  0  0  0
  3  4  1  0  0  0  0
  3 19  1  0  0  0  0
  4  5  1  0  0  0  0
  4 20  1  0  0  0  0
  4 21  1  0  0  0  0
  5  6  1  0  0  0  0
  6 11  1  0  0  0  0
  6  9  1  0  0  0  0
  6  7  1  0  0  0  0
  7  8  3  0  0  0  0
  8 22  1  0  0  0  0
  9 10  1  0  0  0  0
  9 23  1  0  0  0  0
  9 24  1  0  0  0  0
 10 25  1  0  0  0  0
 10 26  1  0  0  0  0
 10 27  1  0  0  0  0
 11 28  1  0  0  0  0
 11 29  1  0  0  0  0
 11 30  1  0  0  0  0
 12 13  1  0  0  0  0
 13 14  1  0  0  0  0
 13 31  1  0  0  0  0
 13 32  1  0  0  0  0
 14 16  1  0  0  0  0
 14 15  1  0  0  0  0
 14 33  1  0  0  0  0
 15 16  1  0  0  0  0
 15 34  1  0  0  0  0
 15 35  1  0  0  0  0
M  END
$$$$