36787046 36787045
 OpenBabel01151410473D

 30 30  0  0  0  0  0  0  0  0999 V2000
    2.0136   -0.2786    0.2841 C   0  0  0  0  0  0  0  0  0  0  0  0
    3.5001   -0.0757    0.0519 C   0  0  0  0  0  0  0  0  0  0  0  0
    4.0080   -1.2401   -0.5965 O   0  0  0  0  0  0  0  0  0  0  0  0
    5.3420   -1.2511   -0.8980 C   0  0  0  0  0  0  0  0  0  0  0  0
    6.2542   -0.2335   -0.6263 C   0  0  0  0  0  0  0  0  0  0  0  0
    7.5989   -0.3722   -0.9932 C   0  0  0  0  0  0  0  0  0  0  0  0
    8.0537   -1.5339   -1.6413 C   0  0  0  0  0  0  0  0  0  0  0  0
    7.1282   -2.5560   -1.9048 C   0  0  0  0  0  0  0  0  0  0  0  0
    5.7874   -2.4095   -1.5360 C   0  0  0  0  0  0  0  0  0  0  0  0
    9.8974   -1.7179   -2.1401 Si  0  0  3  0  0  0  0  0  0  0  0  0
   10.5798    0.0097   -2.5457 C   0  0  0  0  0  0  0  0  0  0  0  0
   11.0038    1.1008   -2.8058 C   0  0  0  0  0  0  0  0  0  0  0  0
   10.8752   -2.4453   -0.7232 C   0  0  0  0  0  0  0  0  0  0  0  0
   10.3420   -4.1098   -0.3964 Cl  0  0  0  0  0  0  0  0  0  0  0  0
   10.0479   -2.7817   -3.6822 C   0  0  0  0  0  0  0  0  0  0  0  0
    1.5748    0.5906    0.7821 H   0  0  0  0  0  0  0  0  0  0  0  0
    1.8372   -1.1661    0.9008 H   0  0  0  0  0  0  0  0  0  0  0  0
    1.4937   -0.4417   -0.6658 H   0  0  0  0  0  0  0  0  0  0  0  0
    3.9961    0.0682    1.0188 H   0  0  0  0  0  0  0  0  0  0  0  0
    3.6454    0.8070   -0.5816 H   0  0  0  0  0  0  0  0  0  0  0  0
    5.9559    0.6844   -0.1313 H   0  0  0  0  0  0  0  0  0  0  0  0
    8.2798    0.4469   -0.7659 H   0  0  0  0  0  0  0  0  0  0  0  0
    7.4274   -3.4807   -2.3946 H   0  0  0  0  0  0  0  0  0  0  0  0
    5.0821   -3.2096   -1.7485 H   0  0  0  0  0  0  0  0  0  0  0  0
   11.3753    2.0729   -3.0427 H   0  0  0  0  0  0  0  0  0  0  0  0
   10.7438   -1.8641    0.1939 H   0  0  0  0  0  0  0  0  0  0  0  0
   11.9424   -2.4814   -0.9594 H   0  0  0  0  0  0  0  0  0  0  0  0
    9.6753   -3.7946   -3.5046 H   0  0  0  0  0  0  0  0  0  0  0  0
   11.0943   -2.8562   -3.9937 H   0  0  0  0  0  0  0  0  0  0  0  0
    9.4765   -2.3476   -4.5081 H   0  0  0  0  0  0  0  0  0  0  0  0
  1  2  1  0  0  0  0
  1 16  1  0  0  0  0
  1 17  1  0  0  0  0
  1 18  1  0  0  0  0
  2  3  1  0  0  0  0
  2 19  1  0  0  0  0
  2 20  1  0  0  0  0
  3  4  1  0  0  0  0
  4  5  2  0  0  0  0
  4  9  1  0  0  0  0
  5  6  1  0  0  0  0
  5 21  1  0  0  0  0
  6  7  2  0  0  0  0
  6 22  1  0  0  0  0
  7  8  1  0  0  0  0
  7 10  1  0  0  0  0
  8  9  2  0  0  0  0
  8 23  1  0  0  0  0
  9 24  1  0  0  0  0
 10 15  1  0  0  0  0
 10 13  1  0  0  0  0
 10 11  1  0  0  0  0
 11 12  3  0  0  0  0
 12 25  1  0  0  0  0
 13 14  1  0  0  0  0
 13 26  1  0  0  0  0
 13 27  1  0  0  0  0
 15 28  1  0  0  0  0
 15 29  1  0  0  0  0
 15 30  1  0  0  0  0
M  END
$$$$