6198143 6198142
 OpenBabel01151410423D

 30 29  0  0  0  0  0  0  0  0999 V2000
    3.0270    4.4157    5.9150 C   0  0  0  0  0  0  0  0  0  0  0  0
    3.5520    4.7491    4.8884 C   0  0  0  0  0  0  0  0  0  0  0  0
    4.1973    5.1290    3.6201 C   0  0  0  0  0  0  0  0  0  0  0  0
    5.5059    4.3681    3.3865 C   0  0  0  0  0  0  0  0  0  0  0  0
    5.2797    2.8662    3.1796 C   0  0  0  0  0  0  0  0  0  0  0  0
    6.5997    2.1027    3.0601 C   0  0  0  0  0  0  0  0  0  0  0  0
    6.4235    0.5960    2.8326 C   0  0  0  0  0  0  0  0  0  0  0  0
    6.2507   -0.2520    4.1007 C   0  0  0  0  0  0  0  0  0  0  0  0
    4.8980   -0.0918    4.8014 C   0  0  0  0  0  0  0  0  0  0  0  0
    4.6715   -1.1200    5.9126 C   0  0  0  0  0  0  0  0  0  0  0  0
    5.5717   -0.8905    7.0529 C   0  0  0  0  0  0  0  0  0  0  0  0
    6.3148   -0.6780    7.9719 C   0  0  0  0  0  0  0  0  0  0  0  0
    2.5635    4.1057    6.8240 H   0  0  0  0  0  0  0  0  0  0  0  0
    4.4097    6.2041    3.6352 H   0  0  0  0  0  0  0  0  0  0  0  0
    3.5093    4.9514    2.7856 H   0  0  0  0  0  0  0  0  0  0  0  0
    6.1841    4.5294    4.2340 H   0  0  0  0  0  0  0  0  0  0  0  0
    5.9994    4.7797    2.4975 H   0  0  0  0  0  0  0  0  0  0  0  0
    4.6771    2.7071    2.2776 H   0  0  0  0  0  0  0  0  0  0  0  0
    4.6990    2.4814    4.0160 H   0  0  0  0  0  0  0  0  0  0  0  0
    7.2274    2.2788    3.9416 H   0  0  0  0  0  0  0  0  0  0  0  0
    7.1472    2.5112    2.2006 H   0  0  0  0  0  0  0  0  0  0  0  0
    7.3360    0.2364    2.3383 H   0  0  0  0  0  0  0  0  0  0  0  0
    5.6021    0.4055    2.1321 H   0  0  0  0  0  0  0  0  0  0  0  0
    7.0659   -0.0282    4.7988 H   0  0  0  0  0  0  0  0  0  0  0  0
    6.3689   -1.3045    3.8122 H   0  0  0  0  0  0  0  0  0  0  0  0
    4.0937   -0.1899    4.0624 H   0  0  0  0  0  0  0  0  0  0  0  0
    4.8233    0.9042    5.2458 H   0  0  0  0  0  0  0  0  0  0  0  0
    4.7984   -2.1360    5.5233 H   0  0  0  0  0  0  0  0  0  0  0  0
    3.6337   -1.0385    6.2582 H   0  0  0  0  0  0  0  0  0  0  0  0
    6.9805   -0.4757    8.7787 H   0  0  0  0  0  0  0  0  0  0  0  0
  1  2  3  0  0  0  0
  1 13  1  0  0  0  0
  2  3  1  0  0  0  0
  3  4  1  0  0  0  0
  3 14  1  0  0  0  0
  3 15  1  0  0  0  0
  4  5  1  0  0  0  0
  4 16  1  0  0  0  0
  4 17  1  0  0  0  0
  5  6  1  0  0  0  0
  5 18  1  0  0  0  0
  5 19  1  0  0  0  0
  6  7  1  0  0  0  0
  6 20  1  0  0  0  0
  6 21  1  0  0  0  0
  7  8  1  0  0  0  0
  7 22  1  0  0  0  0
  7 23  1  0  0  0  0
  8  9  1  0  0  0  0
  8 24  1  0  0  0  0
  8 25  1  0  0  0  0
  9 10  1  0  0  0  0
  9 26  1  0  0  0  0
  9 27  1  0  0  0  0
 10 11  1  0  0  0  0
 10 28  1  0  0  0  0
 10 29  1  0  0  0  0
 11 12  3  0  0  0  0
 12 30  1  0  0  0  0
M  END
$$$$