36413406 36413405
 OpenBabel01151410433D

 21 22  0  0  0  0  0  0  0  0999 V2000
    0.9641   -0.1155    0.5513 C   0  0  0  0  0  0  0  0  0  0  0  0
    2.3683   -0.1661    0.3378 O   0  0  0  0  0  0  0  0  0  0  0  0
    2.9298   -1.3963    0.1551 C   0  0  0  0  0  0  0  0  0  0  0  0
    4.3192   -1.3753   -0.0412 C   0  0  0  0  0  0  0  0  0  0  0  0
    5.0473   -2.5621   -0.2442 C   0  0  0  0  0  0  0  0  0  0  0  0
    6.4632   -2.5039   -0.4412 C   0  0  0  0  0  0  0  0  0  0  0  0
    7.6522   -2.4546   -0.6064 C   0  0  0  0  0  0  0  0  0  0  0  0
    4.3934   -3.7938   -0.2536 C   0  0  0  0  0  0  0  0  0  0  0  0
    3.0274   -3.7928   -0.0589 C   0  0  0  0  0  0  0  0  0  0  0  0
    2.3054   -2.6323    0.1408 C   0  0  0  0  0  0  0  0  0  0  0  0
    0.9792   -2.9003    0.3072 O   0  0  0  0  0  0  0  0  0  0  0  0
    0.9527   -4.3347    0.1908 C   0  0  0  0  0  0  0  0  0  0  0  0
    2.2495   -4.9103   -0.0413 O   0  0  0  0  0  0  0  0  0  0  0  0
    0.6871    0.9353    0.6822 H   0  0  0  0  0  0  0  0  0  0  0  0
    0.6828   -0.6440    1.4678 H   0  0  0  0  0  0  0  0  0  0  0  0
    0.4169   -0.4915   -0.3190 H   0  0  0  0  0  0  0  0  0  0  0  0
    4.8382   -0.4184   -0.0360 H   0  0  0  0  0  0  0  0  0  0  0  0
    8.7056   -2.4099   -0.7526 H   0  0  0  0  0  0  0  0  0  0  0  0
    4.9302   -4.7235   -0.4075 H   0  0  0  0  0  0  0  0  0  0  0  0
    0.5416   -4.7542    1.1161 H   0  0  0  0  0  0  0  0  0  0  0  0
    0.2926   -4.6070   -0.6408 H   0  0  0  0  0  0  0  0  0  0  0  0
  1  2  1  0  0  0  0
  1 14  1  0  0  0  0
  1 15  1  0  0  0  0
  1 16  1  0  0  0  0
  2  3  1  0  0  0  0
  3  4  2  0  0  0  0
  3 10  1  0  0  0  0
  4  5  1  0  0  0  0
  4 17  1  0  0  0  0
  5  8  2  0  0  0  0
  5  6  1  0  0  0  0
  6  7  3  0  0  0  0
  7 18  1  0  0  0  0
  8  9  1  0  0  0  0
  8 19  1  0  0  0  0
  9 13  1  0  0  0  0
  9 10  2  0  0  0  0
 10 11  1  0  0  0  0
 11 12  1  0  0  0  0
 12 13  1  0  0  0  0
 12 20  1  0  0  0  0
 12 21  1  0  0  0  0
M  END
$$$$