31585929 31585928
 OpenBabel01151410483D

 52 53  0  0  0  0  0  0  0  0999 V2000
    9.6498   -9.4067    7.7906 C   0  0  0  0  0  0  0  0  0  0  0  0
   10.0242   -8.3414    8.1966 C   0  0  0  0  0  0  0  0  0  0  0  0
   10.6152   -6.9901    8.5953 C   0  0  0  0  0  0  0  0  0  0  0  0
   11.2486   -5.9799    8.7047 C   0  0  0  0  0  0  0  0  0  0  0  0
   12.2289   -4.8209    8.5854 C   0  0  0  0  0  0  0  0  0  0  0  0
   13.1157   -4.0676    8.2834 C   0  0  0  0  0  0  0  0  0  0  0  0
   14.5652   -3.1452    7.6694 P   0  0  0  0  0  0  0  0  0  0  0  0
   14.4553   -3.1505    5.8246 C   0  0  0  0  0  0  0  0  0  0  0  0
   13.0896   -3.3284    5.4147 C   0  0  0  0  0  0  0  0  0  0  0  0
   12.7388   -4.0617    4.2926 C   0  0  0  0  0  0  0  0  0  0  0  0
   13.7454   -4.6767    3.5867 C   0  0  0  0  0  0  0  0  0  0  0  0
   15.0835   -4.4216    3.9187 C   0  0  0  0  0  0  0  0  0  0  0  0
   15.5105   -3.4857    4.9163 C   0  0  0  0  0  0  0  0  0  0  0  0
   16.9246   -2.8232    4.5722 C   0  0  0  0  0  0  0  0  0  0  0  0
   18.0803   -2.5351    5.3741 C   0  0  0  0  0  0  0  0  0  0  0  0
   19.3662   -2.4552    4.7266 C   0  0  0  0  0  0  0  0  0  0  0  0
   19.5692   -2.4216    3.3644 C   0  0  0  0  0  0  0  0  0  0  0  0
   18.4581   -2.4235    2.5680 C   0  0  0  0  0  0  0  0  0  0  0  0
   17.1628   -2.6082    3.1147 C   0  0  0  0  0  0  0  0  0  0  0  0
   16.0736   -2.5639    2.1856 N   0  0  0  0  0  0  0  0  0  0  0  0
   15.3494   -1.2959    2.2579 C   0  0  0  0  0  0  0  0  0  0  0  0
   16.3070   -3.0625    0.8285 C   0  0  0  0  0  0  0  0  0  0  0  0
   18.2325   -2.1739    6.7139 N   0  0  0  0  0  0  0  0  0  0  0  0
   17.5792   -2.7785    7.8292 C   0  0  0  0  0  0  0  0  0  0  0  0
   18.6199   -0.7659    6.9187 C   0  0  0  0  0  0  0  0  0  0  0  0
   14.0988   -1.4507    8.0374 C   0  0  0  0  0  0  0  0  0  0  0  0
   14.0099   -0.2621    8.1138 C   0  0  0  0  0  0  0  0  0  0  0  0
   13.9924    1.2529    7.9722 C   0  0  0  0  0  0  0  0  0  0  0  0
   13.9579    2.3855    7.6085 C   0  0  0  0  0  0  0  0  0  0  0  0
   13.8499    3.7465    6.9355 C   0  0  0  0  0  0  0  0  0  0  0  0
   13.7188    4.7614    6.3115 C   0  0  0  0  0  0  0  0  0  0  0  0
    9.3715  -10.3455    7.3817 H   0  0  0  0  0  0  0  0  0  0  0  0
   12.2722   -2.9899    6.0478 H   0  0  0  0  0  0  0  0  0  0  0  0
   11.6960   -4.2160    4.0376 H   0  0  0  0  0  0  0  0  0  0  0  0
   13.5110   -5.2988    2.7247 H   0  0  0  0  0  0  0  0  0  0  0  0
   15.8306   -4.8542    3.2502 H   0  0  0  0  0  0  0  0  0  0  0  0
   20.2561   -2.3680    5.3532 H   0  0  0  0  0  0  0  0  0  0  0  0
   20.5658   -2.3194    2.9490 H   0  0  0  0  0  0  0  0  0  0  0  0
   18.6082   -2.2867    1.5019 H   0  0  0  0  0  0  0  0  0  0  0  0
   15.9391   -0.4839    1.8164 H   0  0  0  0  0  0  0  0  0  0  0  0
   15.0887   -1.0211    3.2847 H   0  0  0  0  0  0  0  0  0  0  0  0
   14.4128   -1.3771    1.6955 H   0  0  0  0  0  0  0  0  0  0  0  0
   16.9570   -3.9461    0.8240 H   0  0  0  0  0  0  0  0  0  0  0  0
   15.3546   -3.3728    0.3859 H   0  0  0  0  0  0  0  0  0  0  0  0
   16.7436   -2.2940    0.1801 H   0  0  0  0  0  0  0  0  0  0  0  0
   17.2380   -3.7886    7.6093 H   0  0  0  0  0  0  0  0  0  0  0  0
   16.7985   -2.0966    8.1578 H   0  0  0  0  0  0  0  0  0  0  0  0
   18.2575   -2.8455    8.6865 H   0  0  0  0  0  0  0  0  0  0  0  0
   17.8483   -0.0923    6.5319 H   0  0  0  0  0  0  0  0  0  0  0  0
   19.5761   -0.5171    6.4431 H   0  0  0  0  0  0  0  0  0  0  0  0
   18.7541   -0.5514    7.9851 H   0  0  0  0  0  0  0  0  0  0  0  0
   13.5782    5.6378    5.7164 H   0  0  0  0  0  0  0  0  0  0  0  0
  1  2  3  0  0  0  0
  1 32  1  0  0  0  0
  2  3  1  0  0  0  0
  3  4  3  0  0  0  0
  4  5  1  0  0  0  0
  5  6  3  0  0  0  0
  6  7  1  0  0  0  0
  7 26  1  0  0  0  0
  7  8  1  0  0  0  0
  8  9  2  0  0  0  0
  8 13  1  0  0  0  0
  9 10  1  0  0  0  0
  9 33  1  0  0  0  0
 10 11  2  0  0  0  0
 10 34  1  0  0  0  0
 11 12  1  0  0  0  0
 11 35  1  0  0  0  0
 12 13  2  0  0  0  0
 12 36  1  0  0  0  0
 13 14  1  0  0  0  0
 14 15  2  0  0  0  0
 14 19  1  0  0  0  0
 15 16  1  0  0  0  0
 15 23  1  0  0  0  0
 16 17  2  0  0  0  0
 16 37  1  0  0  0  0
 17 18  1  0  0  0  0
 17 38  1  0  0  0  0
 18 19  2  0  0  0  0
 18 39  1  0  0  0  0
 19 20  1  0  0  0  0
 20 22  1  0  0  0  0
 20 21  1  0  0  0  0
 21 40  1  0  0  0  0
 21 41  1  0  0  0  0
 21 42  1  0  0  0  0
 22 43  1  0  0  0  0
 22 44  1  0  0  0  0
 22 45  1  0  0  0  0
 23 25  1  0  0  0  0
 23 24  1  0  0  0  0
 24 46  1  0  0  0  0
 24 47  1  0  0  0  0
 24 48  1  0  0  0  0
 25 49  1  0  0  0  0
 25 50  1  0  0  0  0
 25 51  1  0  0  0  0
 26 27  3  0  0  0  0
 27 28  1  0  0  0  0
 28 29  3  0  0  0  0
 29 30  1  0  0  0  0
 30 31  3  0  0  0  0
 31 52  1  0  0  0  0
M  END
$$$$