500722 500721
 OpenBabel01151410463D

 37 39  0  0  0  0  0  0  0  0999 V2000
    1.1814   -0.0201   -0.0831 C   0  0  0  0  0  0  0  0  0  0  0  0
    2.3845    0.0024   -0.0788 C   0  0  0  0  0  0  0  0  0  0  0  0
    4.2610    0.0384   -0.0736 Si  0  0  3  0  0  0  0  0  0  0  0  0
    4.9741    0.5428    1.6005 C   0  0  0  0  0  0  0  0  0  0  0  0
    6.2273    0.0842    2.0502 C   0  0  0  0  0  0  0  0  0  0  0  0
    6.7388    0.4839    3.2882 C   0  0  0  0  0  0  0  0  0  0  0  0
    6.0115    1.3486    4.1003 C   0  0  0  0  0  0  0  0  0  0  0  0
    4.7706    1.8152    3.6773 C   0  0  0  0  0  0  0  0  0  0  0  0
    4.2552    1.4175    2.4405 C   0  0  0  0  0  0  0  0  0  0  0  0
    5.0087   -1.6507   -0.4885 C   0  0  0  0  0  0  0  0  0  0  0  0
    4.3376   -2.8323   -0.1166 C   0  0  0  0  0  0  0  0  0  0  0  0
    4.8762   -4.0877   -0.4112 C   0  0  0  0  0  0  0  0  0  0  0  0
    6.0937   -4.1878   -1.0785 C   0  0  0  0  0  0  0  0  0  0  0  0
    6.7752   -3.0336   -1.4533 C   0  0  0  0  0  0  0  0  0  0  0  0
    6.2396   -1.7761   -1.1627 C   0  0  0  0  0  0  0  0  0  0  0  0
    4.9286    1.2463   -1.3662 C   0  0  0  0  0  0  0  0  0  0  0  0
    5.7269    2.3537   -1.0235 C   0  0  0  0  0  0  0  0  0  0  0  0
    6.2046    3.2262   -2.0059 C   0  0  0  0  0  0  0  0  0  0  0  0
    5.8947    3.0113   -3.3459 C   0  0  0  0  0  0  0  0  0  0  0  0
    5.1033    1.9256   -3.7077 C   0  0  0  0  0  0  0  0  0  0  0  0
    4.6213    1.0526   -2.7291 C   0  0  0  0  0  0  0  0  0  0  0  0
    0.1168   -0.0388   -0.0891 H   0  0  0  0  0  0  0  0  0  0  0  0
    6.8302   -0.5931    1.4475 H   0  0  0  0  0  0  0  0  0  0  0  0
    7.7076    0.1159    3.6168 H   0  0  0  0  0  0  0  0  0  0  0  0
    6.4110    1.6572    5.0625 H   0  0  0  0  0  0  0  0  0  0  0  0
    4.2002    2.4902    4.3102 H   0  0  0  0  0  0  0  0  0  0  0  0
    3.2814    1.8061    2.1427 H   0  0  0  0  0  0  0  0  0  0  0  0
    3.3841   -2.7935    0.4096 H   0  0  0  0  0  0  0  0  0  0  0  0
    4.3426   -4.9881   -0.1174 H   0  0  0  0  0  0  0  0  0  0  0  0
    6.5112   -5.1649   -1.3059 H   0  0  0  0  0  0  0  0  0  0  0  0
    7.7266   -3.1094   -1.9737 H   0  0  0  0  0  0  0  0  0  0  0  0
    6.8044   -0.8963   -1.4701 H   0  0  0  0  0  0  0  0  0  0  0  0
    5.9927    2.5613    0.0121 H   0  0  0  0  0  0  0  0  0  0  0  0
    6.8193    4.0763   -1.7207 H   0  0  0  0  0  0  0  0  0  0  0  0
    6.2679    3.6911   -4.1069 H   0  0  0  0  0  0  0  0  0  0  0  0
    4.8584    1.7558   -4.7530 H   0  0  0  0  0  0  0  0  0  0  0  0
    4.0044    0.2123   -3.0482 H   0  0  0  0  0  0  0  0  0  0  0  0
  1  2  3  0  0  0  0
  1 22  1  0  0  0  0
  2  3  1  0  0  0  0
  3 16  1  0  0  0  0
  3 10  1  0  0  0  0
  3  4  1  0  0  0  0
  4  5  2  0  0  0  0
  4  9  1  0  0  0  0
  5  6  1  0  0  0  0
  5 23  1  0  0  0  0
  6  7  2  0  0  0  0
  6 24  1  0  0  0  0
  7  8  1  0  0  0  0
  7 25  1  0  0  0  0
  8  9  2  0  0  0  0
  8 26  1  0  0  0  0
  9 27  1  0  0  0  0
 10 11  2  0  0  0  0
 10 15  1  0  0  0  0
 11 12  1  0  0  0  0
 11 28  1  0  0  0  0
 12 13  2  0  0  0  0
 12 29  1  0  0  0  0
 13 14  1  0  0  0  0
 13 30  1  0  0  0  0
 14 15  2  0  0  0  0
 14 31  1  0  0  0  0
 15 32  1  0  0  0  0
 16 17  2  0  0  0  0
 16 21  1  0  0  0  0
 17 18  1  0  0  0  0
 17 33  1  0  0  0  0
 18 19  2  0  0  0  0
 18 34  1  0  0  0  0
 19 20  1  0  0  0  0
 19 35  1  0  0  0  0
 20 21  2  0  0  0  0
 20 36  1  0  0  0  0
 21 37  1  0  0  0  0
M  END
$$$$