31216083 31216082
 OpenBabel01151410423D

 20 20  0  0  0  0  0  0  0  0999 V2000
    0.9726   -0.0717    0.0334 C   0  0  0  0  0  0  0  0  0  0  0  0
    2.1733   -0.1032    0.0082 C   0  0  0  0  0  0  0  0  0  0  0  0
    3.6093   -0.1321   -0.0222 C   0  0  0  0  0  0  0  0  0  0  0  0
    4.2839    1.0985   -0.0375 C   0  0  0  0  0  0  0  0  0  0  0  0
    5.6826    1.1525   -0.0440 C   0  0  0  0  0  0  0  0  0  0  0  0
    6.3980   -0.0524   -0.0200 C   0  0  0  0  0  0  0  0  0  0  0  0
    5.7309   -1.2897   -0.0041 C   0  0  0  0  0  0  0  0  0  0  0  0
    4.3224   -1.3522   -0.0525 C   0  0  0  0  0  0  0  0  0  0  0  0
    3.6427   -2.5809    0.0986 N   0  0  0  0  0  0  0  0  0  0  0  0
    6.5260   -2.4843    0.0432 C   0  0  0  0  0  0  0  0  0  0  0  0
    7.1723   -3.4481    0.0589 N   0  0  0  0  0  0  0  0  0  0  0  0
    6.4173    2.4709   -0.0552 C   0  0  0  0  0  0  0  0  0  0  0  0
    7.1850    2.6430    1.0549 F   0  0  0  0  0  0  0  0  0  0  0  0
    7.2617    2.5805   -1.1170 F   0  0  0  0  0  0  0  0  0  0  0  0
    5.5949    3.5534   -0.1163 F   0  0  0  0  0  0  0  0  0  0  0  0
   -0.0918   -0.0405    0.0610 H   0  0  0  0  0  0  0  0  0  0  0  0
    3.7071    2.0243   -0.0336 H   0  0  0  0  0  0  0  0  0  0  0  0
    7.4890   -0.0262   -0.0028 H   0  0  0  0  0  0  0  0  0  0  0  0
    2.6740   -2.5605   -0.2119 H   0  0  0  0  0  0  0  0  0  0  0  0
    4.1317   -3.4042   -0.2445 H   0  0  0  0  0  0  0  0  0  0  0  0
  1  2  3  0  0  0  0
  1 16  1  0  0  0  0
  2  3  1  0  0  0  0
  3  8  1  0  0  0  0
  3  4  2  0  0  0  0
  4  5  1  0  0  0  0
  4 17  1  0  0  0  0
  5  6  2  0  0  0  0
  5 12  1  0  0  0  0
  6  7  1  0  0  0  0
  6 18  1  0  0  0  0
  7  8  2  0  0  0  0
  7 10  1  0  0  0  0
  8  9  1  0  0  0  0
  9 19  1  0  0  0  0
  9 20  1  0  0  0  0
 10 11  3  0  0  0  0
 12 15  1  0  0  0  0
 12 14  1  0  0  0  0
 12 13  1  0  0  0  0
M  END
$$$$