550409 550408
 OpenBabel01211413253D

 32 34  0  0  0  0  0  0  0  0999 V2000
    4.2590   -1.5655   -0.6984 O   0  0  0  0  0  0  0  0  0  0  0  0
    3.1924   -1.6370   -0.0933 C   0  0  0  0  0  0  0  0  0  0  0  0
    1.9147   -1.2645   -0.7051 C   0  0  0  0  0  0  0  0  0  0  0  0
    0.7140   -1.9314   -0.4979 C   0  0  0  0  0  0  0  0  0  0  0  0
   -0.2593   -1.3315   -1.2459 N   0  0  0  0  0  0  0  0  0  0  0  0
   -1.2300   -1.6160   -1.2844 H   0  0  0  0  0  0  0  0  0  0  0  0
    0.2853   -0.2898   -1.9424 C   0  0  0  0  0  0  0  0  0  0  0  0
    1.6406   -0.2242   -1.6621 C   0  0  0  0  0  0  0  0  0  0  0  0
    2.5030    0.7962   -2.2580 C   0  0  0  0  0  0  0  0  0  0  0  0
    2.3019    1.2165   -3.5830 C   0  0  0  0  0  0  0  0  0  0  0  0
    3.1060    2.2085   -4.1524 C   0  0  0  0  0  0  0  0  0  0  0  0
    4.1284    2.7885   -3.4066 C   0  0  0  0  0  0  0  0  0  0  0  0
    4.3442    2.3787   -2.0931 C   0  0  0  0  0  0  0  0  0  0  0  0
    3.5331    1.3932   -1.5209 C   0  0  0  0  0  0  0  0  0  0  0  0
    3.2100   -2.1323    1.3146 C   0  0  0  0  0  0  0  0  0  0  0  0
    4.1949   -3.0575    1.6869 C   0  0  0  0  0  0  0  0  0  0  0  0
    4.2513   -3.5355    2.9968 C   0  0  0  0  0  0  0  0  0  0  0  0
    3.3331   -3.0841    3.9446 C   0  0  0  0  0  0  0  0  0  0  0  0
    2.3640   -2.1466    3.5879 C   0  0  0  0  0  0  0  0  0  0  0  0
    2.3058   -1.6638    2.2786 C   0  0  0  0  0  0  0  0  0  0  0  0
    0.4769   -2.7950    0.1103 H   0  0  0  0  0  0  0  0  0  0  0  0
   -0.3393    0.3184   -2.5835 H   0  0  0  0  0  0  0  0  0  0  0  0
    1.5219    0.7671   -4.1924 H   0  0  0  0  0  0  0  0  0  0  0  0
    2.9357    2.5208   -5.1793 H   0  0  0  0  0  0  0  0  0  0  0  0
    4.7599    3.5536   -3.8497 H   0  0  0  0  0  0  0  0  0  0  0  0
    5.1476    2.8209   -1.5103 H   0  0  0  0  0  0  0  0  0  0  0  0
    3.7242    1.0996   -0.4929 H   0  0  0  0  0  0  0  0  0  0  0  0
    4.9203   -3.4074    0.9543 H   0  0  0  0  0  0  0  0  0  0  0  0
    5.0155   -4.2557    3.2793 H   0  0  0  0  0  0  0  0  0  0  0  0
    3.3795   -3.4558    4.9656 H   0  0  0  0  0  0  0  0  0  0  0  0
    1.6585   -1.7851    4.3324 H   0  0  0  0  0  0  0  0  0  0  0  0
    1.5600   -0.9134    2.0282 H   0  0  0  0  0  0  0  0  0  0  0  0
  1  2  2  0  0  0  0
  2 15  1  0  0  0  0
  2  3  1  0  0  0  0
  3  4  2  0  0  0  0
  3  8  1  0  0  0  0
  4  5  1  0  0  0  0
  4 21  1  0  0  0  0
  5  7  1  0  0  0  0
  5  6  1  0  0  0  0
  7  8  2  0  0  0  0
  7 22  1  0  0  0  0
  8  9  1  0  0  0  0
  9 10  2  0  0  0  0
  9 14  1  0  0  0  0
 10 11  1  0  0  0  0
 10 23  1  0  0  0  0
 11 12  2  0  0  0  0
 11 24  1  0  0  0  0
 12 13  1  0  0  0  0
 12 25  1  0  0  0  0
 13 14  2  0  0  0  0
 13 26  1  0  0  0  0
 14 27  1  0  0  0  0
 15 16  2  0  0  0  0
 15 20  1  0  0  0  0
 16 17  1  0  0  0  0
 16 28  1  0  0  0  0
 17 18  2  0  0  0  0
 17 29  1  0  0  0  0
 18 19  1  0  0  0  0
 18 30  1  0  0  0  0
 19 20  2  0  0  0  0
 19 31  1  0  0  0  0
 20 32  1  0  0  0  0
M  END
$$$$