478218 478217
 OpenBabel01211413173D

 12 11  0  0  0  0  0  0  0  0999 V2000
    1.0305   -0.0025    0.1656 C   0  0  0  0  0  0  0  0  0  0  0  0
    2.5296    0.0098    0.0484 C   0  0  0  0  0  0  0  0  0  0  0  0
    3.1504   -0.4496   -1.0519 C   0  0  0  0  0  0  0  0  0  0  0  0
    3.2892    0.6003    1.2061 C   0  0  0  0  0  0  0  0  0  0  0  0
    3.2640   -0.5010    2.5995 Cl  0  0  0  0  0  0  0  0  0  0  0  0
    0.6545    1.0125    0.3312 H   0  0  0  0  0  0  0  0  0  0  0  0
    0.7108   -0.6331    1.0010 H   0  0  0  0  0  0  0  0  0  0  0  0
    0.5517   -0.3881   -0.7411 H   0  0  0  0  0  0  0  0  0  0  0  0
    2.5938   -0.8646   -1.8878 H   0  0  0  0  0  0  0  0  0  0  0  0
    4.2325   -0.4361   -1.1440 H   0  0  0  0  0  0  0  0  0  0  0  0
    2.8520    1.5560    1.5118 H   0  0  0  0  0  0  0  0  0  0  0  0
    4.3387    0.7810    0.9532 H   0  0  0  0  0  0  0  0  0  0  0  0
  1  2  1  0  0  0  0
  1  6  1  0  0  0  0
  1  7  1  0  0  0  0
  1  8  1  0  0  0  0
  2  4  1  0  0  0  0
  2  3  2  0  0  0  0
  3  9  1  0  0  0  0
  3 10  1  0  0  0  0
  4  5  1  0  0  0  0
  4 11  1  0  0  0  0
  4 12  1  0  0  0  0
M  END
$$$$