4376055 4376054
 OpenBabel01211413533D

 25 26  0  0  1  0  0  0  0  0999 V2000
    7.8847    1.8442   -8.8777 Cl  0  0  0  0  0  0  0  0  0  0  0  0
    7.7130    1.5825   -7.1872 C   0  0  0  0  0  0  0  0  0  0  0  0
    6.7198    2.2420   -6.4813 C   0  0  0  0  0  0  0  0  0  0  0  0
    6.5947    2.0265   -5.1038 C   0  0  0  0  0  0  0  0  0  0  0  0
    7.4309    1.1343   -4.3830 C   0  0  0  0  0  0  0  0  0  0  0  0
    8.4031    0.4577   -5.1529 C   0  0  0  0  0  0  0  0  0  0  0  0
    8.5560    0.6970   -6.5300 C   0  0  0  0  0  0  0  0  0  0  0  0
    9.4459   -0.7532   -4.4979 Cl  0  0  0  0  0  0  0  0  0  0  0  0
    7.1204    0.9602   -2.9000 C   0  0  3  0  0  0  0  0  0  0  0  0
    7.6324   -0.1545   -2.1729 O   0  0  0  0  0  0  0  0  0  0  0  0
    8.1081    1.1489   -1.7438 C   0  0  0  0  0  0  0  0  0  0  0  0
    9.5730    1.3100   -1.9196 C   0  0  0  0  0  0  0  0  0  0  0  0
   10.3685    0.4449   -1.5652 O   0  0  0  0  0  0  0  0  0  0  0  0
   10.0170    2.5328   -2.3366 N   0  0  0  0  0  0  0  0  0  0  0  0
    7.5347    1.5792   -0.4347 C   0  0  0  0  0  0  0  0  0  0  0  0
    6.5362    2.2840   -0.3682 O   0  0  0  0  0  0  0  0  0  0  0  0
    8.2051    1.1704    0.6867 N   0  0  0  0  0  0  0  0  0  0  0  0
    6.0324    2.9134   -6.9905 H   0  0  0  0  0  0  0  0  0  0  0  0
    5.7923    2.5503   -4.5818 H   0  0  0  0  0  0  0  0  0  0  0  0
    9.3243    0.1697   -7.0915 H   0  0  0  0  0  0  0  0  0  0  0  0
    6.0866    1.2079   -2.6559 H   0  0  0  0  0  0  0  0  0  0  0  0
    9.4173    3.3471   -2.3403 H   0  0  0  0  0  0  0  0  0  0  0  0
   11.0165    2.6784   -2.2745 H   0  0  0  0  0  0  0  0  0  0  0  0
    9.0276    0.5778    0.6353 H   0  0  0  0  0  0  0  0  0  0  0  0
    7.8519    1.4399    1.5917 H   0  0  0  0  0  0  0  0  0  0  0  0
  1  2  1  0  0  0  0
  2  3  2  0  0  0  0
  2  7  1  0  0  0  0
  3  4  1  0  0  0  0
  3 18  1  0  0  0  0
  4  5  2  0  0  0  0
  4 19  1  0  0  0  0
  5  6  1  0  0  0  0
  5  9  1  0  0  0  0
  6  7  2  0  0  0  0
  6  8  1  0  0  0  0
  7 20  1  0  0  0  0
  9 11  1  0  0  0  0
  9 10  1  0  0  0  0
  9 21  1  0  0  0  0
 10 11  1  0  0  0  0
 11 15  1  0  0  0  0
 11 12  1  0  0  0  0
 12 14  1  0  0  0  0
 12 13  2  0  0  0  0
 14 22  1  0  0  0  0
 14 23  1  0  0  0  0
 15 17  1  0  0  0  0
 15 16  2  0  0  0  0
 17 24  1  0  0  0  0
 17 25  1  0  0  0  0
M  END
$$$$