15308109 15308108
 OpenBabel01211414003D

 17 17  0  0  0  0  0  0  0  0999 V2000
    0.7545    0.3251   -0.1056 C   0  0  0  0  0  0  0  0  0  0  0  0
    2.2359    0.1936   -0.0136 C   0  0  0  0  0  0  0  0  0  0  0  0
    3.1801    1.1897    0.1125 C   0  0  0  0  0  0  0  0  0  0  0  0
    4.5066    0.6700    0.1663 C   0  0  0  0  0  0  0  0  0  0  0  0
    4.5392   -0.7092    0.0824 C   0  0  0  0  0  0  0  0  0  0  0  0
    2.9590   -1.3548   -0.0671 S   0  0  0  0  0  0  0  0  0  0  0  0
    5.7055   -1.5793    0.1083 C   0  0  0  0  0  0  0  0  0  0  0  0
    5.6006   -2.8563   -0.1060 N   0  0  0  0  0  0  0  0  0  0  0  0
    6.9717   -1.1445    0.3677 N   0  0  0  0  0  0  0  0  0  0  0  0
    0.4520    1.3771   -0.0675 H   0  0  0  0  0  0  0  0  0  0  0  0
    0.2662   -0.1939    0.7260 H   0  0  0  0  0  0  0  0  0  0  0  0
    0.3843   -0.0954   -1.0466 H   0  0  0  0  0  0  0  0  0  0  0  0
    2.9353    2.2445    0.1592 H   0  0  0  0  0  0  0  0  0  0  0  0
    5.3943    1.2843    0.2508 H   0  0  0  0  0  0  0  0  0  0  0  0
    4.6153   -3.0794   -0.2947 H   0  0  0  0  0  0  0  0  0  0  0  0
    7.0437   -0.4174    1.0668 H   0  0  0  0  0  0  0  0  0  0  0  0
    7.5800   -1.9350    0.5551 H   0  0  0  0  0  0  0  0  0  0  0  0
  1  2  1  0  0  0  0
  1 10  1  0  0  0  0
  1 11  1  0  0  0  0
  1 12  1  0  0  0  0
  2  3  2  0  0  0  0
  2  6  1  0  0  0  0
  3  4  1  0  0  0  0
  3 13  1  0  0  0  0
  4  5  2  0  0  0  0
  4 14  1  0  0  0  0
  5  6  1  0  0  0  0
  5  7  1  0  0  0  0
  7  9  1  0  0  0  0
  7  8  2  0  0  0  0
  8 15  1  0  0  0  0
  9 16  1  0  0  0  0
  9 17  1  0  0  0  0
M  END
$$$$