2917865 2917864
 OpenBabel01211413513D

 34 35  0  0  0  0  0  0  0  0999 V2000
    1.2041   -0.3976    0.1258 O   0  0  0  0  0  0  0  0  0  0  0  0
    2.4057   -0.4149   -0.0985 C   0  0  0  0  0  0  0  0  0  0  0  0
    3.2200   -1.6672   -0.3119 C   0  0  0  0  0  0  0  0  0  0  0  0
    4.2158   -1.5338   -1.4860 C   0  0  0  0  0  0  0  0  0  0  0  0
    3.4531   -1.4624   -2.8239 C   0  0  0  0  0  0  0  0  0  0  0  0
    5.1145   -2.7845   -1.5121 C   0  0  0  0  0  0  0  0  0  0  0  0
    5.1178   -0.2912   -1.3151 C   0  0  0  0  0  0  0  0  0  0  0  0
    4.3176    0.9727   -1.1340 C   0  0  0  0  0  0  0  0  0  0  0  0
    4.5273    2.0122   -1.7383 O   0  0  0  0  0  0  0  0  0  0  0  0
    3.2081    0.8641   -0.1185 C   0  0  0  0  0  0  0  0  0  0  0  0
    3.0579    1.8333    0.7384 N   0  0  0  0  0  0  0  0  0  0  0  0
    2.0540    1.7038    1.6533 N   0  0  0  0  0  0  0  0  0  0  0  0
    1.8273    2.7957    2.5204 C   0  0  0  0  0  0  0  0  0  0  0  0
    2.8396    3.7179    2.8299 C   0  0  0  0  0  0  0  0  0  0  0  0
    2.6150    4.7527    3.7407 C   0  0  0  0  0  0  0  0  0  0  0  0
    1.3758    4.8620    4.3565 C   0  0  0  0  0  0  0  0  0  0  0  0
    0.3633    3.9500    4.0868 C   0  0  0  0  0  0  0  0  0  0  0  0
    0.5944    2.9107    3.1812 C   0  0  0  0  0  0  0  0  0  0  0  0
    1.1568    5.8537    5.2299 F   0  0  0  0  0  0  0  0  0  0  0  0
    2.5303   -2.5016   -0.4873 H   0  0  0  0  0  0  0  0  0  0  0  0
    3.7502   -1.8714    0.6265 H   0  0  0  0  0  0  0  0  0  0  0  0
    2.7860   -0.5955   -2.8724 H   0  0  0  0  0  0  0  0  0  0  0  0
    2.8395   -2.3580   -2.9741 H   0  0  0  0  0  0  0  0  0  0  0  0
    4.1472   -1.3918   -3.6691 H   0  0  0  0  0  0  0  0  0  0  0  0
    5.6852   -2.8823   -0.5816 H   0  0  0  0  0  0  0  0  0  0  0  0
    5.8327   -2.7385   -2.3387 H   0  0  0  0  0  0  0  0  0  0  0  0
    4.5208   -3.6971   -1.6359 H   0  0  0  0  0  0  0  0  0  0  0  0
    5.7662   -0.3947   -0.4363 H   0  0  0  0  0  0  0  0  0  0  0  0
    5.7686   -0.1652   -2.1890 H   0  0  0  0  0  0  0  0  0  0  0  0
    1.1870    1.2435    1.3479 H   0  0  0  0  0  0  0  0  0  0  0  0
    3.8153    3.6301    2.3583 H   0  0  0  0  0  0  0  0  0  0  0  0
    3.3995    5.4654    3.9717 H   0  0  0  0  0  0  0  0  0  0  0  0
   -0.5956    4.0498    4.5847 H   0  0  0  0  0  0  0  0  0  0  0  0
   -0.2012    2.1960    2.9871 H   0  0  0  0  0  0  0  0  0  0  0  0
  1  2  2  0  0  0  0
  2 10  1  0  0  0  0
  2  3  1  0  0  0  0
  3  4  1  0  0  0  0
  3 20  1  0  0  0  0
  3 21  1  0  0  0  0
  4  7  1  0  0  0  0
  4  6  1  0  0  0  0
  4  5  1  0  0  0  0
  5 22  1  0  0  0  0
  5 23  1  0  0  0  0
  5 24  1  0  0  0  0
  6 25  1  0  0  0  0
  6 26  1  0  0  0  0
  6 27  1  0  0  0  0
  7  8  1  0  0  0  0
  7 28  1  0  0  0  0
  7 29  1  0  0  0  0
  8 10  1  0  0  0  0
  8  9  2  0  0  0  0
 10 11  2  0  0  0  0
 11 12  1  0  0  0  0
 12 13  1  0  0  0  0
 12 30  1  0  0  0  0
 13 14  2  0  0  0  0
 13 18  1  0  0  0  0
 14 15  1  0  0  0  0
 14 31  1  0  0  0  0
 15 16  2  0  0  0  0
 15 32  1  0  0  0  0
 16 17  1  0  0  0  0
 16 19  1  0  0  0  0
 17 18  2  0  0  0  0
 17 33  1  0  0  0  0
 18 34  1  0  0  0  0
M  END
$$$$