609224 609223
 OpenBabel01211413283D

 32 33  0  0  0  0  0  0  0  0999 V2000
    2.0814    1.9460   -0.8374 O   0  0  0  0  0  0  0  0  0  0  0  0
    2.4462    0.8405   -1.2313 C   0  0  0  0  0  0  0  0  0  0  0  0
    2.5337   -0.3390   -0.4024 C   0  0  0  0  0  0  0  0  0  0  0  0
    2.2286   -0.4655    0.9365 C   0  0  0  0  0  0  0  0  0  0  0  0
    2.4587   -1.7869    1.4167 C   0  0  0  0  0  0  0  0  0  0  0  0
    2.9337   -2.6268    0.4292 C   0  0  0  0  0  0  0  0  0  0  0  0
    3.0772   -1.8123   -1.0712 S   0  0  0  0  0  0  0  0  0  0  0  0
    3.3210   -4.0724    0.5493 C   0  0  0  0  0  0  0  0  0  0  0  0
    2.1133   -4.9990    0.3812 C   0  0  0  0  0  0  0  0  0  0  0  0
    2.4546   -6.4744    0.6139 C   0  0  0  0  0  0  0  0  0  0  0  0
    3.3303   -7.0746   -0.4906 C   0  0  0  0  0  0  0  0  0  0  0  0
    3.6267   -8.5243   -0.2287 C   0  0  0  0  0  0  0  0  0  0  0  0
    2.7668   -9.6018   -0.3161 C   0  0  0  0  0  0  0  0  0  0  0  0
    3.4080  -10.8326    0.0063 C   0  0  0  0  0  0  0  0  0  0  0  0
    4.7401  -10.6582    0.3191 C   0  0  0  0  0  0  0  0  0  0  0  0
    5.2012   -9.0172    0.2356 S   0  0  0  0  0  0  0  0  0  0  0  0
    5.7114  -11.6631    0.6851 C   0  0  0  0  0  0  0  0  0  0  0  0
    5.4702  -12.8654    0.7789 O   0  0  0  0  0  0  0  0  0  0  0  0
    2.7350    0.7137   -2.2896 H   0  0  0  0  0  0  0  0  0  0  0  0
    1.8643    0.3574    1.5416 H   0  0  0  0  0  0  0  0  0  0  0  0
    2.2915   -2.1013    2.4404 H   0  0  0  0  0  0  0  0  0  0  0  0
    3.7736   -4.2354    1.5357 H   0  0  0  0  0  0  0  0  0  0  0  0
    4.0947   -4.3123   -0.1888 H   0  0  0  0  0  0  0  0  0  0  0  0
    1.6726   -4.8729   -0.6160 H   0  0  0  0  0  0  0  0  0  0  0  0
    1.3351   -4.7117    1.1007 H   0  0  0  0  0  0  0  0  0  0  0  0
    1.5133   -7.0360    0.6719 H   0  0  0  0  0  0  0  0  0  0  0  0
    2.9428   -6.5906    1.5895 H   0  0  0  0  0  0  0  0  0  0  0  0
    4.2654   -6.5112   -0.5844 H   0  0  0  0  0  0  0  0  0  0  0  0
    2.8170   -6.9883   -1.4566 H   0  0  0  0  0  0  0  0  0  0  0  0
    1.7233   -9.5125   -0.5943 H   0  0  0  0  0  0  0  0  0  0  0  0
    2.9215  -11.8009    0.0052 H   0  0  0  0  0  0  0  0  0  0  0  0
    6.7328  -11.3004    0.8879 H   0  0  0  0  0  0  0  0  0  0  0  0
  1  2  2  0  0  0  0
  2  3  1  0  0  0  0
  2 19  1  0  0  0  0
  3  4  2  0  0  0  0
  3  7  1  0  0  0  0
  4  5  1  0  0  0  0
  4 20  1  0  0  0  0
  5  6  2  0  0  0  0
  5 21  1  0  0  0  0
  6  7  1  0  0  0  0
  6  8  1  0  0  0  0
  8  9  1  0  0  0  0
  8 22  1  0  0  0  0
  8 23  1  0  0  0  0
  9 10  1  0  0  0  0
  9 24  1  0  0  0  0
  9 25  1  0  0  0  0
 10 11  1  0  0  0  0
 10 26  1  0  0  0  0
 10 27  1  0  0  0  0
 11 12  1  0  0  0  0
 11 28  1  0  0  0  0
 11 29  1  0  0  0  0
 12 13  2  0  0  0  0
 12 16  1  0  0  0  0
 13 14  1  0  0  0  0
 13 30  1  0  0  0  0
 14 15  2  0  0  0  0
 14 31  1  0  0  0  0
 15 16  1  0  0  0  0
 15 17  1  0  0  0  0
 17 18  2  0  0  0  0
 17 32  1  0  0  0  0
M  END
$$$$