2624184 2624183
 OpenBabel01211413493D

 48 49  0  0  1  0  0  0  0  0999 V2000
    4.4958    1.0094   -8.3927 C   0  0  0  0  0  0  0  0  0  0  0  0
    4.4022    1.4203   -6.9316 C   0  0  0  0  0  0  0  0  0  0  0  0
    5.7717    1.5846   -6.2676 C   0  0  0  0  0  0  0  0  0  0  0  0
    6.5030    2.8552   -6.7169 C   0  0  0  0  0  0  0  0  0  0  0  0
    7.8342    3.0380   -5.9838 C   0  0  0  0  0  0  0  0  0  0  0  0
    8.3869    2.0543   -5.4843 O   0  0  0  0  0  0  0  0  0  0  0  0
    8.4496    4.3054   -5.9819 N   0  0  0  0  0  0  0  0  0  0  0  0
    9.8577    4.4338   -5.5324 C   0  0  3  0  0  0  0  0  0  0  0  0
   10.0680    3.8007   -4.1771 C   0  0  0  0  0  0  0  0  0  0  0  0
   11.1358    3.0018   -4.0569 C   0  0  0  0  0  0  0  0  0  0  0  0
   12.0637    2.9748   -5.5104 S   0  0  0  0  0  0  0  0  0  0  0  0
   12.2059    1.6224   -6.0024 O   0  0  0  0  0  0  0  0  0  0  0  0
   13.2099    3.8479   -5.3463 O   0  0  0  0  0  0  0  0  0  0  0  0
   10.8675    3.8304   -6.5097 C   0  0  0  0  0  0  0  0  0  0  0  0
    7.9184    5.3948   -6.7354 C   0  0  0  0  0  0  0  0  0  0  0  0
    6.6901    5.9607   -6.3894 C   0  0  0  0  0  0  0  0  0  0  0  0
    6.0871    6.9092   -7.2204 C   0  0  0  0  0  0  0  0  0  0  0  0
    6.7156    7.3344   -8.4009 C   0  0  0  0  0  0  0  0  0  0  0  0
    7.9916    6.8376   -8.6873 C   0  0  0  0  0  0  0  0  0  0  0  0
    8.5919    5.8849   -7.8592 C   0  0  0  0  0  0  0  0  0  0  0  0
    5.9490    8.2158   -9.3734 C   0  0  0  0  0  0  0  0  0  0  0  0
    6.8149    9.2060  -10.1570 C   0  0  0  0  0  0  0  0  0  0  0  0
    5.1605    7.3253  -10.3410 C   0  0  0  0  0  0  0  0  0  0  0  0
    3.4927    0.8789   -8.8117 H   0  0  0  0  0  0  0  0  0  0  0  0
    5.0296    0.0590   -8.4957 H   0  0  0  0  0  0  0  0  0  0  0  0
    5.0134    1.7634   -8.9920 H   0  0  0  0  0  0  0  0  0  0  0  0
    3.8397    0.6504   -6.3909 H   0  0  0  0  0  0  0  0  0  0  0  0
    3.8262    2.3492   -6.8467 H   0  0  0  0  0  0  0  0  0  0  0  0
    6.3875    0.6975   -6.4549 H   0  0  0  0  0  0  0  0  0  0  0  0
    5.6219    1.6371   -5.1807 H   0  0  0  0  0  0  0  0  0  0  0  0
    5.8271    3.6859   -6.5289 H   0  0  0  0  0  0  0  0  0  0  0  0
    6.7229    2.8142   -7.7892 H   0  0  0  0  0  0  0  0  0  0  0  0
   10.0665    5.5046   -5.4011 H   0  0  0  0  0  0  0  0  0  0  0  0
    9.3626    3.9486   -3.3693 H   0  0  0  0  0  0  0  0  0  0  0  0
   11.4275    2.4293   -3.1922 H   0  0  0  0  0  0  0  0  0  0  0  0
   10.4235    3.1168   -7.2067 H   0  0  0  0  0  0  0  0  0  0  0  0
   11.3948    4.6072   -7.0749 H   0  0  0  0  0  0  0  0  0  0  0  0
    6.1688    5.6438   -5.4882 H   0  0  0  0  0  0  0  0  0  0  0  0
    5.0986    7.2836   -6.9611 H   0  0  0  0  0  0  0  0  0  0  0  0
    8.5210    7.1413   -9.5875 H   0  0  0  0  0  0  0  0  0  0  0  0
    9.5509    5.4865   -8.1675 H   0  0  0  0  0  0  0  0  0  0  0  0
    5.2317    8.8147   -8.7967 H   0  0  0  0  0  0  0  0  0  0  0  0
    7.4950    8.7016  -10.8515 H   0  0  0  0  0  0  0  0  0  0  0  0
    7.4161    9.8246   -9.4828 H   0  0  0  0  0  0  0  0  0  0  0  0
    6.1837    9.8736  -10.7538 H   0  0  0  0  0  0  0  0  0  0  0  0
    5.8291    6.7017  -10.9465 H   0  0  0  0  0  0  0  0  0  0  0  0
    4.5542    7.9298  -11.0231 H   0  0  0  0  0  0  0  0  0  0  0  0
    4.4852    6.6525   -9.7997 H   0  0  0  0  0  0  0  0  0  0  0  0
  1  2  1  0  0  0  0
  1 24  1  0  0  0  0
  1 25  1  0  0  0  0
  1 26  1  0  0  0  0
  2  3  1  0  0  0  0
  2 27  1  0  0  0  0
  2 28  1  0  0  0  0
  3  4  1  0  0  0  0
  3 29  1  0  0  0  0
  3 30  1  0  0  0  0
  4  5  1  0  0  0  0
  4 31  1  0  0  0  0
  4 32  1  0  0  0  0
  5  7  1  0  0  0  0
  5  6  2  0  0  0  0
  7 15  1  0  0  0  0
  7  8  1  0  0  0  0
  8 14  1  0  0  0  0
  8  9  1  0  0  0  0
  8 33  1  0  0  0  0
  9 10  2  0  0  0  0
  9 34  1  0  0  0  0
 10 11  1  0  0  0  0
 10 35  1  0  0  0  0
 11 14  1  0  0  0  0
 11 13  2  0  0  0  0
 11 12  2  0  0  0  0
 14 36  1  0  0  0  0
 14 37  1  0  0  0  0
 15 16  2  0  0  0  0
 15 20  1  0  0  0  0
 16 17  1  0  0  0  0
 16 38  1  0  0  0  0
 17 18  2  0  0  0  0
 17 39  1  0  0  0  0
 18 19  1  0  0  0  0
 18 21  1  0  0  0  0
 19 20  2  0  0  0  0
 19 40  1  0  0  0  0
 20 41  1  0  0  0  0
 21 23  1  0  0  0  0
 21 22  1  0  0  0  0
 21 42  1  0  0  0  0
 22 43  1  0  0  0  0
 22 44  1  0  0  0  0
 22 45  1  0  0  0  0
 23 46  1  0  0  0  0
 23 47  1  0  0  0  0
 23 48  1  0  0  0  0
M  END
$$$$