4337882 4337881
 OpenBabel01211413523D

 32 33  0  0  0  0  0  0  0  0999 V2000
    5.1248   -6.3325   -0.0269 C   0  0  0  0  0  0  0  0  0  0  0  0
    5.4996   -4.8849   -0.1400 C   0  0  0  0  0  0  0  0  0  0  0  0
    4.8348   -3.9127    0.6133 C   0  0  0  0  0  0  0  0  0  0  0  0
    5.1708   -2.5611    0.4822 C   0  0  0  0  0  0  0  0  0  0  0  0
    6.1763   -2.1546   -0.4035 C   0  0  0  0  0  0  0  0  0  0  0  0
    6.8154   -3.1285   -1.1807 C   0  0  0  0  0  0  0  0  0  0  0  0
    6.4824   -4.4806   -1.0488 C   0  0  0  0  0  0  0  0  0  0  0  0
    6.4760   -0.7182   -0.5303 C   0  0  0  0  0  0  0  0  0  0  0  0
    7.6895   -0.2268   -0.8275 C   0  0  0  0  0  0  0  0  0  0  0  0
    8.0073    1.2059   -0.9496 C   0  0  0  0  0  0  0  0  0  0  0  0
    7.0834    2.1501   -1.4121 C   0  0  0  0  0  0  0  0  0  0  0  0
    7.4447    3.4948   -1.5506 C   0  0  0  0  0  0  0  0  0  0  0  0
    8.7385    3.9202   -1.2321 C   0  0  0  0  0  0  0  0  0  0  0  0
    9.6726    2.9753   -0.7975 C   0  0  0  0  0  0  0  0  0  0  0  0
    9.3093    1.6322   -0.6575 C   0  0  0  0  0  0  0  0  0  0  0  0
    9.1327    5.3546   -1.4206 C   0  0  0  0  0  0  0  0  0  0  0  0
    4.6513   -6.5440    0.9377 H   0  0  0  0  0  0  0  0  0  0  0  0
    6.0136   -6.9683   -0.0990 H   0  0  0  0  0  0  0  0  0  0  0  0
    4.4274   -6.6025   -0.8261 H   0  0  0  0  0  0  0  0  0  0  0  0
    4.0495   -4.1982    1.3097 H   0  0  0  0  0  0  0  0  0  0  0  0
    4.6404   -1.8284    1.0869 H   0  0  0  0  0  0  0  0  0  0  0  0
    7.5717   -2.8493   -1.9096 H   0  0  0  0  0  0  0  0  0  0  0  0
    6.9946   -5.2152   -1.6663 H   0  0  0  0  0  0  0  0  0  0  0  0
    5.6408   -0.0512   -0.3331 H   0  0  0  0  0  0  0  0  0  0  0  0
    8.5338   -0.8970   -0.9691 H   0  0  0  0  0  0  0  0  0  0  0  0
    6.0749    1.8526   -1.6875 H   0  0  0  0  0  0  0  0  0  0  0  0
    6.7081    4.2064   -1.9169 H   0  0  0  0  0  0  0  0  0  0  0  0
   10.6919    3.2753   -0.5656 H   0  0  0  0  0  0  0  0  0  0  0  0
   10.0573    0.9212   -0.3137 H   0  0  0  0  0  0  0  0  0  0  0  0
    9.9902    5.6142   -0.7907 H   0  0  0  0  0  0  0  0  0  0  0  0
    8.3104    6.0220   -1.1415 H   0  0  0  0  0  0  0  0  0  0  0  0
    9.3991    5.5352   -2.4667 H   0  0  0  0  0  0  0  0  0  0  0  0
  1  2  1  0  0  0  0
  1 17  1  0  0  0  0
  1 18  1  0  0  0  0
  1 19  1  0  0  0  0
  2  3  2  0  0  0  0
  2  7  1  0  0  0  0
  3  4  1  0  0  0  0
  3 20  1  0  0  0  0
  4  5  2  0  0  0  0
  4 21  1  0  0  0  0
  5  6  1  0  0  0  0
  5  8  1  0  0  0  0
  6  7  2  0  0  0  0
  6 22  1  0  0  0  0
  7 23  1  0  0  0  0
  8  9  2  0  0  0  0
  8 24  1  0  0  0  0
  9 10  1  0  0  0  0
  9 25  1  0  0  0  0
 10 11  2  0  0  0  0
 10 15  1  0  0  0  0
 11 12  1  0  0  0  0
 11 26  1  0  0  0  0
 12 13  2  0  0  0  0
 12 27  1  0  0  0  0
 13 14  1  0  0  0  0
 13 16  1  0  0  0  0
 14 15  2  0  0  0  0
 14 28  1  0  0  0  0
 15 29  1  0  0  0  0
 16 30  1  0  0  0  0
 16 31  1  0  0  0  0
 16 32  1  0  0  0  0
M  END
$$$$