8196690 8196689
 OpenBabel01211413573D

 34 38  0  0  1  0  0  0  0  0999 V2000
   -1.5161   -1.1428    0.2138 C   0  0  0  0  0  0  0  0  0  0  0  0
   -0.6327   -1.6803   -0.7244 C   0  0  0  0  0  0  0  0  0  0  0  0
    0.6252   -1.1059   -0.9062 C   0  0  0  0  0  0  0  0  0  0  0  0
    0.9889    0.0049   -0.1440 C   0  0  0  0  0  0  0  0  0  0  0  0
    0.1117    0.5479    0.7965 C   0  0  0  0  0  0  0  0  0  0  0  0
   -1.1452   -0.0310    0.9731 C   0  0  0  0  0  0  0  0  0  0  0  0
    2.2592    0.5823   -0.3324 C   0  0  0  0  0  0  0  0  0  0  0  0
    3.3451    0.5229   -0.9827 N   0  0  0  0  0  0  0  0  0  0  0  0
    3.1329    1.5899    0.0705 C   0  0  3  0  0  0  0  0  0  0  0  0
    4.0591    1.5733    1.2592 C   0  0  0  0  0  0  0  0  0  0  0  0
    4.4680    0.5311    2.0820 C   0  0  0  0  0  0  0  0  0  0  0  0
    5.3350    0.8092    3.1421 C   0  0  0  0  0  0  0  0  0  0  0  0
    5.7883    2.1173    3.3758 C   0  0  0  0  0  0  0  0  0  0  0  0
    5.3878    3.1724    2.5519 C   0  0  0  0  0  0  0  0  0  0  0  0
    4.5286    2.8964    1.4994 C   0  0  0  0  0  0  0  0  0  0  0  0
    3.9630    3.7889    0.4850 C   0  0  0  0  0  0  0  0  0  0  0  0
    3.1403    3.0244   -0.3910 C   0  0  0  0  0  0  0  0  0  0  0  0
    2.4958    3.6431   -1.4551 C   0  0  0  0  0  0  0  0  0  0  0  0
    2.6661    5.0177   -1.6396 C   0  0  0  0  0  0  0  0  0  0  0  0
    3.4741    5.7652   -0.7680 C   0  0  0  0  0  0  0  0  0  0  0  0
    4.1313    5.1528    0.3023 C   0  0  0  0  0  0  0  0  0  0  0  0
   -2.4968   -1.5921    0.3535 H   0  0  0  0  0  0  0  0  0  0  0  0
   -0.9248   -2.5461   -1.3136 H   0  0  0  0  0  0  0  0  0  0  0  0
    1.3152   -1.5226   -1.6371 H   0  0  0  0  0  0  0  0  0  0  0  0
    0.3922    1.4137    1.3911 H   0  0  0  0  0  0  0  0  0  0  0  0
   -1.8380    0.3834    1.7018 H   0  0  0  0  0  0  0  0  0  0  0  0
    4.1305   -0.4839    1.8965 H   0  0  0  0  0  0  0  0  0  0  0  0
    5.6686    0.0016    3.7899 H   0  0  0  0  0  0  0  0  0  0  0  0
    6.4666    2.3090    4.2043 H   0  0  0  0  0  0  0  0  0  0  0  0
    5.7509    4.1777    2.7357 H   0  0  0  0  0  0  0  0  0  0  0  0
    1.8804    3.0663   -2.1387 H   0  0  0  0  0  0  0  0  0  0  0  0
    2.1724    5.5137   -2.4723 H   0  0  0  0  0  0  0  0  0  0  0  0
    3.5953    6.8334   -0.9340 H   0  0  0  0  0  0  0  0  0  0  0  0
    4.7599    5.7380    0.9648 H   0  0  0  0  0  0  0  0  0  0  0  0
  1  2  2  0  0  0  0
  1  6  1  0  0  0  0
  1 22  1  0  0  0  0
  2  3  1  0  0  0  0
  2 23  1  0  0  0  0
  3  4  2  0  0  0  0
  3 24  1  0  0  0  0
  4  5  1  0  0  0  0
  4  7  1  0  0  0  0
  5  6  2  0  0  0  0
  5 25  1  0  0  0  0
  6 26  1  0  0  0  0
  7  8  2  0  0  0  0
  7  9  1  0  0  0  0
  8  9  1  0  0  0  0
  9 10  1  0  0  0  0
  9 17  1  0  0  0  0
 10 15  1  0  0  0  0
 10 11  2  0  0  0  0
 11 12  1  0  0  0  0
 11 27  1  0  0  0  0
 12 13  2  0  0  0  0
 12 28  1  0  0  0  0
 13 14  1  0  0  0  0
 13 29  1  0  0  0  0
 14 15  2  0  0  0  0
 14 30  1  0  0  0  0
 15 16  1  0  0  0  0
 16 17  2  0  0  0  0
 16 21  1  0  0  0  0
 17 18  1  0  0  0  0
 18 19  2  0  0  0  0
 18 31  1  0  0  0  0
 19 20  1  0  0  0  0
 19 32  1  0  0  0  0
 20 21  2  0  0  0  0
 20 33  1  0  0  0  0
 21 34  1  0  0  0  0
M  END
$$$$