28301682 28301681
 OpenBabel01211414063D

 16 17  0  0  0  0  0  0  0  0999 V2000
    1.1148   -0.0528   -0.0875 O   0  5  0  0  0  0  0  0  0  0  0  0
    2.3838    0.0107   -0.0865 N   0  3  0  0  0  0  0  0  0  0  0  0
    3.0309    1.2286   -0.0861 C   0  0  0  0  0  0  0  0  0  0  0  0
    4.4242    1.2849   -0.0849 C   0  0  0  0  0  0  0  0  0  0  0  0
    5.1697    0.0969   -0.0842 C   0  0  0  0  0  0  0  0  0  0  0  0
    4.4832   -1.1313   -0.0846 C   0  0  0  0  0  0  0  0  0  0  0  0
    3.0987   -1.0939   -0.0858 C   0  0  0  0  0  0  0  0  0  0  0  0
    2.6129   -2.3711   -0.0860 N   0  0  0  0  0  0  0  0  0  0  0  0
    1.6252   -2.6000   -0.0868 H   0  0  0  0  0  0  0  0  0  0  0  0
    3.6702   -3.2453   -0.0851 C   0  0  0  0  0  0  0  0  0  0  0  0
    4.8382   -2.5064   -0.0842 C   0  0  0  0  0  0  0  0  0  0  0  0
    2.3657    2.0759   -0.0867 H   0  0  0  0  0  0  0  0  0  0  0  0
    4.9310    2.2461   -0.0846 H   0  0  0  0  0  0  0  0  0  0  0  0
    6.2560    0.1254   -0.0833 H   0  0  0  0  0  0  0  0  0  0  0  0
    3.5019   -4.3142   -0.0851 H   0  0  0  0  0  0  0  0  0  0  0  0
    5.8395   -2.9176   -0.0833 H   0  0  0  0  0  0  0  0  0  0  0  0
  1  2  1  0  0  0  0
  2  3  2  0  0  0  0
  2  7  1  0  0  0  0
  3  4  1  0  0  0  0
  3 12  1  0  0  0  0
  4  5  2  0  0  0  0
  4 13  1  0  0  0  0
  5  6  1  0  0  0  0
  5 14  1  0  0  0  0
  6 11  1  0  0  0  0
  6  7  2  0  0  0  0
  7  8  1  0  0  0  0
  8 10  1  0  0  0  0
  8  9  1  0  0  0  0
 10 11  2  0  0  0  0
 10 15  1  0  0  0  0
 11 16  1  0  0  0  0
M  CHG  2   1  -1   2   1
M  END
$$$$