2567628 2567627
 OpenBabel01211413493D

 21 22  0  0  0  0  0  0  0  0999 V2000
    0.2196    1.0668   -0.9432 C   0  0  0  0  0  0  0  0  0  0  0  0
    1.2175    0.4262   -0.3171 C   0  0  0  0  0  0  0  0  0  0  0  0
    2.4813    0.9399    0.0171 N   0  0  0  0  0  0  0  0  0  0  0  0
    2.8981    2.2530   -0.1568 C   0  0  0  0  0  0  0  0  0  0  0  0
    4.1563    2.4194    0.3685 C   0  0  0  0  0  0  0  0  0  0  0  0
    4.5629    1.1649    0.8565 C   0  0  0  0  0  0  0  0  0  0  0  0
    3.5482    0.2523    0.6084 C   0  0  0  0  0  0  0  0  0  0  0  0
    3.5792   -1.1619    0.8928 C   0  0  0  0  0  0  0  0  0  0  0  0
    3.2321   -2.2048    0.0535 C   0  0  0  0  0  0  0  0  0  0  0  0
    3.4105   -3.4827    0.6613 C   0  0  0  0  0  0  0  0  0  0  0  0
    3.9126   -3.3784    1.9378 C   0  0  0  0  0  0  0  0  0  0  0  0
    4.1476   -1.7505    2.4023 S   0  0  0  0  0  0  0  0  0  0  0  0
   -0.7184    0.5557   -1.1393 H   0  0  0  0  0  0  0  0  0  0  0  0
    0.2942    2.0938   -1.2824 H   0  0  0  0  0  0  0  0  0  0  0  0
    1.0465   -0.6020   -0.0156 H   0  0  0  0  0  0  0  0  0  0  0  0
    2.2465    2.9796   -0.6200 H   0  0  0  0  0  0  0  0  0  0  0  0
    4.7179    3.3441    0.3910 H   0  0  0  0  0  0  0  0  0  0  0  0
    5.5138    0.9349    1.3206 H   0  0  0  0  0  0  0  0  0  0  0  0
    2.8737   -2.0636   -0.9592 H   0  0  0  0  0  0  0  0  0  0  0  0
    3.1950   -4.4283    0.1797 H   0  0  0  0  0  0  0  0  0  0  0  0
    4.1582   -4.1790    2.6215 H   0  0  0  0  0  0  0  0  0  0  0  0
  1  2  2  0  0  0  0
  1 13  1  0  0  0  0
  1 14  1  0  0  0  0
  2  3  1  0  0  0  0
  2 15  1  0  0  0  0
  3  4  1  0  0  0  0
  3  7  1  0  0  0  0
  4  5  2  0  0  0  0
  4 16  1  0  0  0  0
  5  6  1  0  0  0  0
  5 17  1  0  0  0  0
  6  7  2  0  0  0  0
  6 18  1  0  0  0  0
  7  8  1  0  0  0  0
  8  9  2  0  0  0  0
  8 12  1  0  0  0  0
  9 10  1  0  0  0  0
  9 19  1  0  0  0  0
 10 11  2  0  0  0  0
 10 20  1  0  0  0  0
 11 12  1  0  0  0  0
 11 21  1  0  0  0  0
M  END
$$$$