1063924 1063923
 OpenBabel01211413373D

 29 32  0  0  1  0  0  0  0  0999 V2000
    1.8741   -2.1954   -1.2160 O   0  0  0  0  0  0  0  0  0  0  0  0
    2.9481   -1.6590   -0.4731 C   0  0  3  0  0  0  0  0  0  0  0  0
    3.1836   -0.1581   -0.7610 C   0  0  0  0  0  0  0  0  0  0  0  0
    4.6979   -0.1078   -1.1093 C   0  0  3  0  0  0  0  0  0  0  0  0
    5.2160   -1.2248   -0.2095 C   0  0  0  0  0  0  0  0  0  0  0  0
    4.3148   -2.2902   -0.8429 C   0  0  3  0  0  0  0  0  0  0  0  0
    4.5093   -2.1664   -2.3800 C   0  0  3  0  0  0  0  0  0  0  0  0
    4.8507   -0.6482   -2.5472 C   0  0  3  0  0  0  0  0  0  0  0  0
    6.2436   -0.6995   -3.2369 C   0  0  3  0  0  0  0  0  0  0  0  0
    6.9106   -1.9882   -2.7443 C   0  0  0  0  0  0  0  0  0  0  0  0
    5.7067   -2.8638   -3.0769 C   0  0  3  0  0  0  0  0  0  0  0  0
    5.6221   -2.4894   -4.5499 C   0  0  0  0  0  0  0  0  0  0  0  0
    5.9573   -1.1897   -4.6482 C   0  0  0  0  0  0  0  0  0  0  0  0
    1.0688   -1.7194   -0.9497 H   0  0  0  0  0  0  0  0  0  0  0  0
    2.7348   -1.8122    0.5919 H   0  0  0  0  0  0  0  0  0  0  0  0
    2.9881    0.4264    0.1452 H   0  0  0  0  0  0  0  0  0  0  0  0
    2.5476    0.2320   -1.5622 H   0  0  0  0  0  0  0  0  0  0  0  0
    5.1468    0.8750   -0.9539 H   0  0  0  0  0  0  0  0  0  0  0  0
    6.2840   -1.3949   -0.2601 H   0  0  0  0  0  0  0  0  0  0  0  0
    4.9865   -1.0498    0.8499 H   0  0  0  0  0  0  0  0  0  0  0  0
    4.4358   -3.3079   -0.4671 H   0  0  0  0  0  0  0  0  0  0  0  0
    3.5861   -2.4292   -2.9106 H   0  0  0  0  0  0  0  0  0  0  0  0
    4.1293   -0.1442   -3.2050 H   0  0  0  0  0  0  0  0  0  0  0  0
    6.8543    0.2018   -3.1800 H   0  0  0  0  0  0  0  0  0  0  0  0
    7.8078   -2.2543   -3.3240 H   0  0  0  0  0  0  0  0  0  0  0  0
    7.2186   -2.0118   -1.7061 H   0  0  0  0  0  0  0  0  0  0  0  0
    5.8307   -3.9297   -2.8842 H   0  0  0  0  0  0  0  0  0  0  0  0
    5.3000   -3.1371   -5.3501 H   0  0  0  0  0  0  0  0  0  0  0  0
    5.9592   -0.5839   -5.5408 H   0  0  0  0  0  0  0  0  0  0  0  0
  1  2  1  0  0  0  0
  1 14  1  0  0  0  0
  2  3  1  0  0  0  0
  2  6  1  0  0  0  0
  2 15  1  0  0  0  0
  3  4  1  0  0  0  0
  3 16  1  0  0  0  0
  3 17  1  0  0  0  0
  4  8  1  0  0  0  0
  4  5  1  0  0  0  0
  4 18  1  0  0  0  0
  5  6  1  0  0  0  0
  5 19  1  0  0  0  0
  5 20  1  0  0  0  0
  6  7  1  0  0  0  0
  6 21  1  0  0  0  0
  7  8  1  0  0  0  0
  7 11  1  0  0  0  0
  7 22  1  0  0  0  0
  8  9  1  0  0  0  0
  8 23  1  0  0  0  0
  9 13  1  0  0  0  0
  9 10  1  0  0  0  0
  9 24  1  0  0  0  0
 10 11  1  0  0  0  0
 10 25  1  0  0  0  0
 10 26  1  0  0  0  0
 11 12  1  0  0  0  0
 11 27  1  0  0  0  0
 12 13  2  0  0  0  0
 12 28  1  0  0  0  0
 13 29  1  0  0  0  0
M  END
$$$$