17272778 17272777
 OpenBabel01211414013D

 28 28  0  0  1  0  0  0  0  0999 V2000
    4.6913   -1.0202   -2.7902 O   0  0  0  0  0  0  0  0  0  0  0  0
    3.3671   -1.1484   -2.5527 C   0  0  0  0  0  0  0  0  0  0  0  0
    2.6103   -1.4010   -3.4833 O   0  0  0  0  0  0  0  0  0  0  0  0
    2.8839   -0.9619   -1.1117 C   0  0  0  0  0  0  0  0  0  0  0  0
    2.3572   -2.3161   -0.5165 C   0  0  3  0  0  0  0  0  0  0  0  0
    3.4417   -3.4240   -0.4242 C   0  0  0  0  0  0  0  0  0  0  0  0
    3.4826   -4.3518   -1.6374 C   0  0  0  0  0  0  0  0  0  0  0  0
    2.1235   -4.9917   -1.9107 C   0  0  0  0  0  0  0  0  0  0  0  0
    0.9831   -4.0346   -1.7564 C   0  0  0  0  0  0  0  0  0  0  0  0
    1.0865   -2.8417   -1.1533 C   0  0  0  0  0  0  0  0  0  0  0  0
    3.9481   -0.4228   -0.1725 C   0  0  0  0  0  0  0  0  0  0  0  0
    5.1315   -0.2748   -0.4498 O   0  0  0  0  0  0  0  0  0  0  0  0
    3.5102   -0.1240    1.0648 O   0  0  0  0  0  0  0  0  0  0  0  0
    1.7800    0.1201   -1.1660 C   0  0  0  0  0  0  0  0  0  0  0  0
    5.2483   -0.7592   -2.0194 H   0  0  0  0  0  0  0  0  0  0  0  0
    2.0743   -2.1084    0.5268 H   0  0  0  0  0  0  0  0  0  0  0  0
    4.4369   -2.9995   -0.2558 H   0  0  0  0  0  0  0  0  0  0  0  0
    3.2280   -4.0387    0.4617 H   0  0  0  0  0  0  0  0  0  0  0  0
    4.2276   -5.1397   -1.4744 H   0  0  0  0  0  0  0  0  0  0  0  0
    3.8124   -3.7994   -2.5234 H   0  0  0  0  0  0  0  0  0  0  0  0
    1.9640   -5.8311   -1.2232 H   0  0  0  0  0  0  0  0  0  0  0  0
    2.1201   -5.4048   -2.9258 H   0  0  0  0  0  0  0  0  0  0  0  0
    0.0240   -4.3432   -2.1665 H   0  0  0  0  0  0  0  0  0  0  0  0
    0.1961   -2.2190   -1.0899 H   0  0  0  0  0  0  0  0  0  0  0  0
    4.2957    0.1963    1.5584 H   0  0  0  0  0  0  0  0  0  0  0  0
    2.2060    1.0979   -1.4238 H   0  0  0  0  0  0  0  0  0  0  0  0
    1.2719    0.2288   -0.2009 H   0  0  0  0  0  0  0  0  0  0  0  0
    1.0156   -0.1006   -1.9190 H   0  0  0  0  0  0  0  0  0  0  0  0
  1  2  1  0  0  0  0
  1 15  1  0  0  0  0
  2  4  1  0  0  0  0
  2  3  2  0  0  0  0
  4 14  1  0  0  0  0
  4 11  1  0  0  0  0
  4  5  1  0  0  0  0
  5  6  1  0  0  0  0
  5 10  1  0  0  0  0
  5 16  1  0  0  0  0
  6  7  1  0  0  0  0
  6 17  1  0  0  0  0
  6 18  1  0  0  0  0
  7  8  1  0  0  0  0
  7 19  1  0  0  0  0
  7 20  1  0  0  0  0
  8  9  1  0  0  0  0
  8 21  1  0  0  0  0
  8 22  1  0  0  0  0
  9 10  2  0  0  0  0
  9 23  1  0  0  0  0
 10 24  1  0  0  0  0
 11 13  1  0  0  0  0
 11 12  2  0  0  0  0
 13 25  1  0  0  0  0
 14 26  1  0  0  0  0
 14 27  1  0  0  0  0
 14 28  1  0  0  0  0
M  END
$$$$