988092 988091
 OpenBabel01211413363D

 20 19  0  0  0  0  0  0  0  0999 V2000
   -0.7280    1.5108    0.3399 C   0  0  0  0  0  0  0  0  0  0  0  0
    0.1423    2.5370   -0.2557 N   0  0  0  0  0  0  0  0  0  0  0  0
    1.4756    2.2425   -0.5149 C   0  0  0  0  0  0  0  0  0  0  0  0
    2.5122    2.9542   -0.9969 C   0  0  0  0  0  0  0  0  0  0  0  0
    2.5269    4.3560   -1.4424 C   0  0  0  0  0  0  0  0  0  0  0  0
    1.6878    4.5665   -2.4905 F   0  0  0  0  0  0  0  0  0  0  0  0
    2.1404    5.2104   -0.4577 F   0  0  0  0  0  0  0  0  0  0  0  0
    3.7436    4.7998   -1.8513 F   0  0  0  0  0  0  0  0  0  0  0  0
    3.8560    2.3689   -1.1719 C   0  0  0  0  0  0  0  0  0  0  0  0
    4.7905    3.0001   -0.4180 F   0  0  0  0  0  0  0  0  0  0  0  0
    3.9097    1.0578   -0.8079 F   0  0  0  0  0  0  0  0  0  0  0  0
    4.2753    2.4128   -2.4612 F   0  0  0  0  0  0  0  0  0  0  0  0
   -0.3864    3.8983   -0.1263 C   0  0  0  0  0  0  0  0  0  0  0  0
   -1.7800    1.6965    0.0984 H   0  0  0  0  0  0  0  0  0  0  0  0
   -0.6120    1.5051    1.4287 H   0  0  0  0  0  0  0  0  0  0  0  0
   -0.4840    0.5139   -0.0441 H   0  0  0  0  0  0  0  0  0  0  0  0
    1.6731    1.1952   -0.2731 H   0  0  0  0  0  0  0  0  0  0  0  0
   -1.4734    3.8981    0.0075 H   0  0  0  0  0  0  0  0  0  0  0  0
   -0.1877    4.4857   -1.0246 H   0  0  0  0  0  0  0  0  0  0  0  0
    0.0564    4.3952    0.7429 H   0  0  0  0  0  0  0  0  0  0  0  0
  1  2  1  0  0  0  0
  1 14  1  0  0  0  0
  1 15  1  0  0  0  0
  1 16  1  0  0  0  0
  2 13  1  0  0  0  0
  2  3  1  0  0  0  0
  3  4  2  0  0  0  0
  3 17  1  0  0  0  0
  4  9  1  0  0  0  0
  4  5  1  0  0  0  0
  5  8  1  0  0  0  0
  5  7  1  0  0  0  0
  5  6  1  0  0  0  0
  9 12  1  0  0  0  0
  9 11  1  0  0  0  0
  9 10  1  0  0  0  0
 13 18  1  0  0  0  0
 13 19  1  0  0  0  0
 13 20  1  0  0  0  0
M  END
$$$$