4775631 4775630
 OpenBabel01211413533D

 40 39  0  0  1  0  0  0  0  0999 V2000
    1.9545    1.4797    1.6665 O   0  0  0  0  0  0  0  0  0  0  0  0
    2.6183    0.5177    2.0173 C   0  0  0  0  0  0  0  0  0  0  0  0
    3.4325   -0.2402    1.2416 O   0  0  0  0  0  0  0  0  0  0  0  0
    3.5218    0.1276   -0.1563 C   0  0  3  0  0  0  0  0  0  0  0  0
    4.8980   -0.3673   -0.6911 C   0  0  0  0  0  0  0  0  0  0  0  0
    5.0768   -1.8939   -0.4847 C   0  0  0  0  0  0  0  0  0  0  0  0
    6.4211   -2.4231   -0.9150 C   0  0  0  0  0  0  0  0  0  0  0  0
    7.5164   -2.6031   -0.1535 C   0  0  0  0  0  0  0  0  0  0  0  0
    7.6179   -2.2540    1.3058 C   0  0  0  0  0  0  0  0  0  0  0  0
    8.7755   -3.1829   -0.7445 C   0  0  0  0  0  0  0  0  0  0  0  0
    5.1540    0.0342   -2.1644 C   0  0  0  0  0  0  0  0  0  0  0  0
    5.0630    1.5167   -2.4117 C   0  0  0  0  0  0  0  0  0  0  0  0
    4.2739    2.1704   -3.2869 C   0  0  0  0  0  0  0  0  0  0  0  0
    3.2854    1.5336   -4.2244 C   0  0  0  0  0  0  0  0  0  0  0  0
    4.3378    3.6728   -3.3966 C   0  0  0  0  0  0  0  0  0  0  0  0
    2.3156   -0.4574   -0.8925 C   0  0  0  0  0  0  0  0  0  0  0  0
    2.6394    0.1227    3.0449 H   0  0  0  0  0  0  0  0  0  0  0  0
    3.4945    1.2216   -0.2320 H   0  0  0  0  0  0  0  0  0  0  0  0
    5.6654    0.1214   -0.0718 H   0  0  0  0  0  0  0  0  0  0  0  0
    4.3197   -2.4400   -1.0601 H   0  0  0  0  0  0  0  0  0  0  0  0
    4.8929   -2.1608    0.5618 H   0  0  0  0  0  0  0  0  0  0  0  0
    6.4728   -2.7049   -1.9671 H   0  0  0  0  0  0  0  0  0  0  0  0
    6.7368   -1.7312    1.6859 H   0  0  0  0  0  0  0  0  0  0  0  0
    8.4780   -1.5974    1.4764 H   0  0  0  0  0  0  0  0  0  0  0  0
    7.7549   -3.1625    1.9015 H   0  0  0  0  0  0  0  0  0  0  0  0
    8.6652   -3.4161   -1.8089 H   0  0  0  0  0  0  0  0  0  0  0  0
    9.0443   -4.1102   -0.2279 H   0  0  0  0  0  0  0  0  0  0  0  0
    9.6044   -2.4746   -0.6448 H   0  0  0  0  0  0  0  0  0  0  0  0
    4.4924   -0.5382   -2.8193 H   0  0  0  0  0  0  0  0  0  0  0  0
    6.1734   -0.2561   -2.4470 H   0  0  0  0  0  0  0  0  0  0  0  0
    5.7488    2.1060   -1.8011 H   0  0  0  0  0  0  0  0  0  0  0  0
    3.2708    0.4437   -4.1741 H   0  0  0  0  0  0  0  0  0  0  0  0
    3.5209    1.8044   -5.2591 H   0  0  0  0  0  0  0  0  0  0  0  0
    2.2738    1.8864   -3.9977 H   0  0  0  0  0  0  0  0  0  0  0  0
    5.0656    4.1112   -2.7058 H   0  0  0  0  0  0  0  0  0  0  0  0
    3.3599    4.1110   -3.1718 H   0  0  0  0  0  0  0  0  0  0  0  0
    4.6260    3.9657   -4.4117 H   0  0  0  0  0  0  0  0  0  0  0  0
    2.2555   -1.5428   -0.7677 H   0  0  0  0  0  0  0  0  0  0  0  0
    2.3336   -0.2244   -1.9590 H   0  0  0  0  0  0  0  0  0  0  0  0
    1.3824   -0.0558   -0.4834 H   0  0  0  0  0  0  0  0  0  0  0  0
  1  2  2  0  0  0  0
  2  3  1  0  0  0  0
  2 17  1  0  0  0  0
  3  4  1  0  0  0  0
  4 16  1  0  0  0  0
  4  5  1  0  0  0  0
  4 18  1  0  0  0  0
  5 11  1  0  0  0  0
  5  6  1  0  0  0  0
  5 19  1  0  0  0  0
  6  7  1  0  0  0  0
  6 20  1  0  0  0  0
  6 21  1  0  0  0  0
  7  8  2  0  0  0  0
  7 22  1  0  0  0  0
  8 10  1  0  0  0  0
  8  9  1  0  0  0  0
  9 23  1  0  0  0  0
  9 24  1  0  0  0  0
  9 25  1  0  0  0  0
 10 26  1  0  0  0  0
 10 27  1  0  0  0  0
 10 28  1  0  0  0  0
 11 12  1  0  0  0  0
 11 29  1  0  0  0  0
 11 30  1  0  0  0  0
 12 13  2  0  0  0  0
 12 31  1  0  0  0  0
 13 15  1  0  0  0  0
 13 14  1  0  0  0  0
 14 32  1  0  0  0  0
 14 33  1  0  0  0  0
 14 34  1  0  0  0  0
 15 35  1  0  0  0  0
 15 36  1  0  0  0  0
 15 37  1  0  0  0  0
 16 38  1  0  0  0  0
 16 39  1  0  0  0  0
 16 40  1  0  0  0  0
M  END
$$$$