2866142 2866141
 OpenBabel01211413513D

 23 23  0  0  0  0  0  0  0  0999 V2000
    1.2677    1.2051    0.8014 C   0  0  0  0  0  0  0  0  0  0  0  0
    2.7455    1.1294    0.4708 C   0  0  0  0  0  0  0  0  0  0  0  0
    3.0195    1.4293   -1.3067 S   0  0  3  0  0  0  0  0  0  0  0  0
    2.6852    2.8700   -1.5700 O   0  0  0  0  0  0  0  0  0  0  0  0
    4.8356    1.3411   -1.2611 C   0  0  0  0  0  0  0  0  0  0  0  0
    5.5548    2.5459   -1.1601 C   0  0  0  0  0  0  0  0  0  0  0  0
    6.9485    2.5502   -1.0995 C   0  0  0  0  0  0  0  0  0  0  0  0
    7.6466    1.3496   -1.1455 C   0  0  0  0  0  0  0  0  0  0  0  0
    6.9503    0.1449   -1.2531 C   0  0  0  0  0  0  0  0  0  0  0  0
    5.5431    0.1250   -1.3093 C   0  0  0  0  0  0  0  0  0  0  0  0
    4.8487   -1.1863   -1.4311 C   0  0  0  0  0  0  0  0  0  0  0  0
    3.7015   -1.3872   -1.7803 O   0  0  0  0  0  0  0  0  0  0  0  0
    5.6313   -2.2137   -1.0559 O   0  0  0  0  0  0  0  0  0  0  0  0
    1.1096    1.0232    1.8690 H   0  0  0  0  0  0  0  0  0  0  0  0
    0.6970    0.4572    0.2410 H   0  0  0  0  0  0  0  0  0  0  0  0
    0.8559    2.1913    0.5623 H   0  0  0  0  0  0  0  0  0  0  0  0
    3.1344    0.1384    0.7228 H   0  0  0  0  0  0  0  0  0  0  0  0
    3.2983    1.8817    1.0423 H   0  0  0  0  0  0  0  0  0  0  0  0
    5.0262    3.4983   -1.1271 H   0  0  0  0  0  0  0  0  0  0  0  0
    7.4842    3.4931   -1.0197 H   0  0  0  0  0  0  0  0  0  0  0  0
    8.7335    1.3493   -1.1034 H   0  0  0  0  0  0  0  0  0  0  0  0
    7.5210   -0.7809   -1.2988 H   0  0  0  0  0  0  0  0  0  0  0  0
    5.0604   -3.0045   -1.1666 H   0  0  0  0  0  0  0  0  0  0  0  0
  1  2  1  0  0  0  0
  1 14  1  0  0  0  0
  1 15  1  0  0  0  0
  1 16  1  0  0  0  0
  2  3  1  0  0  0  0
  2 17  1  0  0  0  0
  2 18  1  0  0  0  0
  3  5  1  0  0  0  0
  3  4  2  0  0  0  0
  5  6  2  0  0  0  0
  5 10  1  0  0  0  0
  6  7  1  0  0  0  0
  6 19  1  0  0  0  0
  7  8  2  0  0  0  0
  7 20  1  0  0  0  0
  8  9  1  0  0  0  0
  8 21  1  0  0  0  0
  9 10  2  0  0  0  0
  9 22  1  0  0  0  0
 10 11  1  0  0  0  0
 11 13  1  0  0  0  0
 11 12  2  0  0  0  0
 13 23  1  0  0  0  0
M  END
$$$$