646126 646125
 OpenBabel01211413303D

 26 27  0  0  0  0  0  0  0  0999 V2000
    0.7771   -0.1242    0.2321 O   0  0  0  0  0  0  0  0  0  0  0  0
    1.9913   -0.0393    0.1298 C   0  0  0  0  0  0  0  0  0  0  0  0
    2.8436   -1.2420    0.0976 C   0  0  0  0  0  0  0  0  0  0  0  0
    2.2176   -2.4991    0.0983 C   0  0  0  0  0  0  0  0  0  0  0  0
    2.9794   -3.6675    0.0697 C   0  0  0  0  0  0  0  0  0  0  0  0
    4.3691   -3.5896    0.0456 C   0  0  0  0  0  0  0  0  0  0  0  0
    4.9966   -2.3432    0.0443 C   0  0  0  0  0  0  0  0  0  0  0  0
    4.2369   -1.1626    0.0661 C   0  0  0  0  0  0  0  0  0  0  0  0
    4.9553    0.1278    0.0533 C   0  0  0  0  0  0  0  0  0  0  0  0
    6.1767    0.1624    0.0338 O   0  0  0  0  0  0  0  0  0  0  0  0
    4.1664    1.4193    0.0545 C   0  0  0  0  0  0  0  0  0  0  0  0
    5.1120    2.9848    0.2329 S   0  0  0  0  0  0  0  0  0  0  0  0
    5.9124    2.9008   -1.3938 C   0  0  0  0  0  0  0  0  0  0  0  0
    3.8883    4.2145   -0.2558 C   0  0  0  0  0  0  0  0  0  0  0  0
    2.6644    1.3140    0.0175 C   0  0  0  0  0  0  0  0  0  0  0  0
    1.9732    2.3056   -0.1404 O   0  0  0  0  0  0  0  0  0  0  0  0
    1.1305   -2.5760    0.1186 H   0  0  0  0  0  0  0  0  0  0  0  0
    2.4876   -4.6383    0.0681 H   0  0  0  0  0  0  0  0  0  0  0  0
    4.9664   -4.4991    0.0277 H   0  0  0  0  0  0  0  0  0  0  0  0
    6.0855   -2.2991    0.0270 H   0  0  0  0  0  0  0  0  0  0  0  0
    6.7327    2.1813   -1.3650 H   0  0  0  0  0  0  0  0  0  0  0  0
    6.3248    3.8840   -1.6352 H   0  0  0  0  0  0  0  0  0  0  0  0
    5.1939    2.6093   -2.1647 H   0  0  0  0  0  0  0  0  0  0  0  0
    3.1611    4.3459    0.5486 H   0  0  0  0  0  0  0  0  0  0  0  0
    3.3964    3.9510   -1.1947 H   0  0  0  0  0  0  0  0  0  0  0  0
    4.4041    5.1691   -0.3972 H   0  0  0  0  0  0  0  0  0  0  0  0
  1  2  2  0  0  0  0
  2 15  1  0  0  0  0
  2  3  1  0  0  0  0
  3  4  2  0  0  0  0
  3  8  1  0  0  0  0
  4  5  1  0  0  0  0
  4 17  1  0  0  0  0
  5  6  2  0  0  0  0
  5 18  1  0  0  0  0
  6  7  1  0  0  0  0
  6 19  1  0  0  0  0
  7  8  2  0  0  0  0
  7 20  1  0  0  0  0
  8  9  1  0  0  0  0
  9 11  1  0  0  0  0
  9 10  2  0  0  0  0
 11 15  1  0  0  0  0
 11 12  2  0  0  0  0
 12 14  1  0  0  0  0
 12 13  1  0  0  0  0
 13 21  1  0  0  0  0
 13 22  1  0  0  0  0
 13 23  1  0  0  0  0
 14 24  1  0  0  0  0
 14 25  1  0  0  0  0
 14 26  1  0  0  0  0
 15 16  2  0  0  0  0
M  END
$$$$