950981 950980
 OpenBabel01211413363D

 32 33  0  0  0  0  0  0  0  0999 V2000
    1.1586    1.6344   -2.0225 C   0  0  0  0  0  0  0  0  0  0  0  0
    2.5786    1.4962   -1.8279 N   0  0  0  0  0  0  0  0  0  0  0  0
    3.1391    0.3374   -1.3271 C   0  0  0  0  0  0  0  0  0  0  0  0
    2.4633   -0.6408   -1.0140 O   0  0  0  0  0  0  0  0  0  0  0  0
    4.6785    0.3834   -1.1841 C   0  0  0  0  0  0  0  0  0  0  0  0
    5.0369    1.4223   -0.0951 C   0  0  0  0  0  0  0  0  0  0  0  0
    6.3880    0.9892    0.4761 C   0  0  0  0  0  0  0  0  0  0  0  0
    6.5470   -0.4841    0.1161 C   0  0  0  0  0  0  0  0  0  0  0  0
    5.2173   -0.8993   -0.5045 C   0  0  0  0  0  0  0  0  0  0  0  0
    5.3341    0.5826   -2.5617 C   0  0  0  0  0  0  0  0  0  0  0  0
    6.1359    1.6895   -2.8834 C   0  0  0  0  0  0  0  0  0  0  0  0
    6.6967    1.8275   -4.1573 C   0  0  0  0  0  0  0  0  0  0  0  0
    6.4672    0.8637   -5.1341 C   0  0  0  0  0  0  0  0  0  0  0  0
    5.6726   -0.2388   -4.8409 C   0  0  0  0  0  0  0  0  0  0  0  0
    5.1093   -0.3755   -3.5704 C   0  0  0  0  0  0  0  0  0  0  0  0
    0.9869    2.3535   -2.8271 H   0  0  0  0  0  0  0  0  0  0  0  0
    0.7180    2.0098   -1.0953 H   0  0  0  0  0  0  0  0  0  0  0  0
    0.7053    0.6738   -2.2807 H   0  0  0  0  0  0  0  0  0  0  0  0
    3.1883    2.2456   -2.1308 H   0  0  0  0  0  0  0  0  0  0  0  0
    4.2946    1.3848    0.7150 H   0  0  0  0  0  0  0  0  0  0  0  0
    5.0465    2.4605   -0.4403 H   0  0  0  0  0  0  0  0  0  0  0  0
    7.2067    1.5743    0.0426 H   0  0  0  0  0  0  0  0  0  0  0  0
    6.4183    1.1434    1.5600 H   0  0  0  0  0  0  0  0  0  0  0  0
    7.3599   -0.6060   -0.6090 H   0  0  0  0  0  0  0  0  0  0  0  0
    6.7927   -1.0953    0.9897 H   0  0  0  0  0  0  0  0  0  0  0  0
    5.3399   -1.7523   -1.1795 H   0  0  0  0  0  0  0  0  0  0  0  0
    4.5436   -1.2263    0.2990 H   0  0  0  0  0  0  0  0  0  0  0  0
    6.3537    2.4674   -2.1579 H   0  0  0  0  0  0  0  0  0  0  0  0
    7.3183    2.6902   -4.3845 H   0  0  0  0  0  0  0  0  0  0  0  0
    6.9074    0.9714   -6.1217 H   0  0  0  0  0  0  0  0  0  0  0  0
    5.4885   -0.9955   -5.5992 H   0  0  0  0  0  0  0  0  0  0  0  0
    4.4839   -1.2460   -3.3728 H   0  0  0  0  0  0  0  0  0  0  0  0
  1  2  1  0  0  0  0
  1 16  1  0  0  0  0
  1 17  1  0  0  0  0
  1 18  1  0  0  0  0
  2  3  1  0  0  0  0
  2 19  1  0  0  0  0
  3  5  1  0  0  0  0
  3  4  2  0  0  0  0
  5  9  1  0  0  0  0
  5  6  1  0  0  0  0
  5 10  1  0  0  0  0
  6  7  1  0  0  0  0
  6 20  1  0  0  0  0
  6 21  1  0  0  0  0
  7  8  1  0  0  0  0
  7 22  1  0  0  0  0
  7 23  1  0  0  0  0
  8  9  1  0  0  0  0
  8 24  1  0  0  0  0
  8 25  1  0  0  0  0
  9 26  1  0  0  0  0
  9 27  1  0  0  0  0
 10 11  2  0  0  0  0
 10 15  1  0  0  0  0
 11 12  1  0  0  0  0
 11 28  1  0  0  0  0
 12 13  2  0  0  0  0
 12 29  1  0  0  0  0
 13 14  1  0  0  0  0
 13 30  1  0  0  0  0
 14 15  2  0  0  0  0
 14 31  1  0  0  0  0
 15 32  1  0  0  0  0
M  END
$$$$