1536737 1536736
 OpenBabel01211413443D

 37 38  0  0  0  0  0  0  0  0999 V2000
    5.9472   -5.0715   -0.5162 C   0  0  0  0  0  0  0  0  0  0  0  0
    5.2276   -4.1331    0.1076 C   0  0  0  0  0  0  0  0  0  0  0  0
    5.4648   -2.6544    0.0023 C   0  0  0  0  0  0  0  0  0  0  0  0
    5.4844   -2.1240    1.3265 O   0  0  0  0  0  0  0  0  0  0  0  0
    5.6513   -0.7705    1.4464 C   0  0  0  0  0  0  0  0  0  0  0  0
    5.9248   -0.3256    2.7410 C   0  0  0  0  0  0  0  0  0  0  0  0
    6.1193    1.0330    3.0011 C   0  0  0  0  0  0  0  0  0  0  0  0
    6.0304    1.9750    1.9682 C   0  0  0  0  0  0  0  0  0  0  0  0
    5.7445    1.5257    0.6729 C   0  0  0  0  0  0  0  0  0  0  0  0
    5.5561    0.1623    0.4133 C   0  0  0  0  0  0  0  0  0  0  0  0
    6.2496    3.4420    2.2516 C   0  0  0  0  0  0  0  0  0  0  0  0
    7.6427    3.6957    2.6114 N   0  0  0  0  0  0  0  0  0  0  0  0
    7.8643    5.1097    2.9067 C   0  0  0  0  0  0  0  0  0  0  0  0
    9.2999    5.4032    3.2784 C   0  0  0  0  0  0  0  0  0  0  0  0
   10.0783    4.4946    4.0046 C   0  0  0  0  0  0  0  0  0  0  0  0
   11.3757    4.8447    4.3450 C   0  0  0  0  0  0  0  0  0  0  0  0
   11.9415    6.0294    4.0321 N   0  0  0  0  0  0  0  0  0  0  0  0
   11.1713    6.9030    3.3516 C   0  0  0  0  0  0  0  0  0  0  0  0
    9.8657    6.6427    2.9614 C   0  0  0  0  0  0  0  0  0  0  0  0
    5.7071   -6.1250   -0.3945 H   0  0  0  0  0  0  0  0  0  0  0  0
    6.7853   -4.8210   -1.1592 H   0  0  0  0  0  0  0  0  0  0  0  0
    4.3947   -4.4368    0.7390 H   0  0  0  0  0  0  0  0  0  0  0  0
    4.6355   -2.2263   -0.5701 H   0  0  0  0  0  0  0  0  0  0  0  0
    6.4173   -2.4461   -0.4961 H   0  0  0  0  0  0  0  0  0  0  0  0
    5.9988   -1.0439    3.5537 H   0  0  0  0  0  0  0  0  0  0  0  0
    6.3512    1.3562    4.0139 H   0  0  0  0  0  0  0  0  0  0  0  0
    5.6647    2.2340   -0.1496 H   0  0  0  0  0  0  0  0  0  0  0  0
    5.3298   -0.1312   -0.6058 H   0  0  0  0  0  0  0  0  0  0  0  0
    5.5770    3.7397    3.0653 H   0  0  0  0  0  0  0  0  0  0  0  0
    5.9709    4.0351    1.3709 H   0  0  0  0  0  0  0  0  0  0  0  0
    8.2405    3.4165    1.8348 H   0  0  0  0  0  0  0  0  0  0  0  0
    7.2313    5.4275    3.7438 H   0  0  0  0  0  0  0  0  0  0  0  0
    7.5941    5.7088    2.0286 H   0  0  0  0  0  0  0  0  0  0  0  0
    9.6841    3.5275    4.3006 H   0  0  0  0  0  0  0  0  0  0  0  0
   12.0103    4.1595    4.8990 H   0  0  0  0  0  0  0  0  0  0  0  0
   11.6441    7.8541    3.1224 H   0  0  0  0  0  0  0  0  0  0  0  0
    9.3046    7.4000    2.4237 H   0  0  0  0  0  0  0  0  0  0  0  0
  1  2  2  0  0  0  0
  1 20  1  0  0  0  0
  1 21  1  0  0  0  0
  2  3  1  0  0  0  0
  2 22  1  0  0  0  0
  3  4  1  0  0  0  0
  3 23  1  0  0  0  0
  3 24  1  0  0  0  0
  4  5  1  0  0  0  0
  5  6  2  0  0  0  0
  5 10  1  0  0  0  0
  6  7  1  0  0  0  0
  6 25  1  0  0  0  0
  7  8  2  0  0  0  0
  7 26  1  0  0  0  0
  8  9  1  0  0  0  0
  8 11  1  0  0  0  0
  9 10  2  0  0  0  0
  9 27  1  0  0  0  0
 10 28  1  0  0  0  0
 11 12  1  0  0  0  0
 11 29  1  0  0  0  0
 11 30  1  0  0  0  0
 12 13  1  0  0  0  0
 12 31  1  0  0  0  0
 13 14  1  0  0  0  0
 13 32  1  0  0  0  0
 13 33  1  0  0  0  0
 14 15  2  0  0  0  0
 14 19  1  0  0  0  0
 15 16  1  0  0  0  0
 15 34  1  0  0  0  0
 16 17  2  0  0  0  0
 16 35  1  0  0  0  0
 17 18  1  0  0  0  0
 18 19  2  0  0  0  0
 18 36  1  0  0  0  0
 19 37  1  0  0  0  0
M  END
$$$$