510926 510925
 OpenBabel01211413213D

 57 60  0  0  1  0  0  0  0  0999 V2000
    1.3122    3.7528    0.1947 O   0  0  0  0  0  0  0  0  0  0  0  0
    2.0388    2.7947    0.4434 C   0  0  0  0  0  0  0  0  0  0  0  0
    1.6378    1.3768    0.1337 C   0  0  0  0  0  0  0  0  0  0  0  0
    2.8721    0.5742   -0.2369 C   0  0  0  0  0  0  0  0  0  0  0  0
    3.9820    0.5691    0.8637 C   0  0  1  0  0  0  0  0  0  0  0  0
    4.1438    1.9868    1.4336 C   0  0  0  0  0  0  0  0  0  0  0  0
    3.2992    3.0063    1.1911 C   0  0  0  0  0  0  0  0  0  0  0  0
    5.1813    2.1131    2.4423 C   0  0  0  0  0  0  0  0  0  0  0  0
    5.3748    1.1268    3.3300 C   0  0  0  0  0  0  0  0  0  0  0  0
    4.5801   -0.1663    3.3432 C   0  0  2  0  0  0  0  0  0  0  0  0
    3.8762   -0.0320    4.1811 H   0  0  0  0  0  0  0  0  0  0  0  0
    3.6464   -0.3628    2.0931 C   0  0  2  0  0  0  0  0  0  0  0  0
    2.6751    0.0282    2.4419 H   0  0  0  0  0  0  0  0  0  0  0  0
    3.3242   -1.8264    1.7415 C   0  0  0  0  0  0  0  0  0  0  0  0
    4.3340   -2.8856    2.1625 C   0  0  0  0  0  0  0  0  0  0  0  0
    4.8217   -2.7667    3.6240 C   0  0  1  0  0  0  0  0  0  0  0  0
    5.4523   -1.3643    3.7991 C   0  0  1  0  0  0  0  0  0  0  0  0
    5.6461   -1.2085    4.8729 H   0  0  0  0  0  0  0  0  0  0  0  0
    6.8300   -1.4995    3.1420 C   0  0  0  0  0  0  0  0  0  0  0  0
    7.2377   -2.9664    3.2977 C   0  0  0  0  0  0  0  0  0  0  0  0
    6.0482   -3.7104    3.9622 C   0  0  1  0  0  0  0  0  0  0  0  0
    6.3613   -3.6672    5.3831 O   0  0  0  0  0  0  0  0  0  0  0  0
    5.7964   -4.5672    6.2335 C   0  0  0  0  0  0  0  0  0  0  0  0
    5.0080   -5.4460    5.9188 O   0  0  0  0  0  0  0  0  0  0  0  0
    6.3509   -4.3951    7.6144 C   0  0  0  0  0  0  0  0  0  0  0  0
    6.0323   -5.1606    3.3867 C   0  0  0  0  0  0  0  0  0  0  0  0
    5.1207   -5.6065    2.6898 O   0  0  0  0  0  0  0  0  0  0  0  0
    7.2574   -6.0145    3.6378 C   0  0  0  0  0  0  0  0  0  0  0  0
    3.6381   -2.9507    4.5901 C   0  0  0  0  0  0  0  0  0  0  0  0
    6.1528    3.5385    2.5042 Cl  0  0  0  0  0  0  0  0  0  0  0  0
    5.2745    0.1284    0.1353 C   0  0  0  0  0  0  0  0  0  0  0  0
    0.9456    1.3888   -0.7155 H   0  0  0  0  0  0  0  0  0  0  0  0
    1.1144    0.9536    0.9963 H   0  0  0  0  0  0  0  0  0  0  0  0
    3.2809    1.0206   -1.1560 H   0  0  0  0  0  0  0  0  0  0  0  0
    2.5711   -0.4369   -0.5230 H   0  0  0  0  0  0  0  0  0  0  0  0
    3.4065    3.9920    1.6311 H   0  0  0  0  0  0  0  0  0  0  0  0
    6.1257    1.2552    4.1070 H   0  0  0  0  0  0  0  0  0  0  0  0
    2.3593   -2.0767    2.2029 H   0  0  0  0  0  0  0  0  0  0  0  0
    3.1498   -1.9590    0.6710 H   0  0  0  0  0  0  0  0  0  0  0  0
    3.8389   -3.8492    2.0069 H   0  0  0  0  0  0  0  0  0  0  0  0
    5.1763   -2.8627    1.4617 H   0  0  0  0  0  0  0  0  0  0  0  0
    7.5659   -0.8362    3.6094 H   0  0  0  0  0  0  0  0  0  0  0  0
    6.8062   -1.2576    2.0793 H   0  0  0  0  0  0  0  0  0  0  0  0
    8.1486   -3.0378    3.9048 H   0  0  0  0  0  0  0  0  0  0  0  0
    7.4763   -3.3733    2.3077 H   0  0  0  0  0  0  0  0  0  0  0  0
    7.2972   -4.9361    7.6946 H   0  0  0  0  0  0  0  0  0  0  0  0
    5.6378   -4.7914    8.3425 H   0  0  0  0  0  0  0  0  0  0  0  0
    6.5035   -3.3355    7.8357 H   0  0  0  0  0  0  0  0  0  0  0  0
    8.0641   -5.7074    2.9686 H   0  0  0  0  0  0  0  0  0  0  0  0
    7.0121   -7.0628    3.4440 H   0  0  0  0  0  0  0  0  0  0  0  0
    7.5875   -5.9331    4.6748 H   0  0  0  0  0  0  0  0  0  0  0  0
    2.8199   -2.2543    4.3824 H   0  0  0  0  0  0  0  0  0  0  0  0
    3.9255   -2.7660    5.6298 H   0  0  0  0  0  0  0  0  0  0  0  0
    3.2304   -3.9641    4.5184 H   0  0  0  0  0  0  0  0  0  0  0  0
    6.1636    0.1922    0.7635 H   0  0  0  0  0  0  0  0  0  0  0  0
    5.4773    0.7717   -0.7304 H   0  0  0  0  0  0  0  0  0  0  0  0
    5.1939   -0.8991   -0.2345 H   0  0  0  0  0  0  0  0  0  0  0  0
  1  2  2  0  0  0  0
  2  3  1  0  0  0  0
  2  7  1  0  0  0  0
  3  4  1  0  0  0  0
  3 32  1  0  0  0  0
  3 33  1  0  0  0  0
  4  5  1  0  0  0  0
  4 34  1  0  0  0  0
  4 35  1  0  0  0  0
  5 12  1  0  0  0  0
  5  6  1  0  0  0  0
  5 31  1  6  0  0  0
  6  8  1  0  0  0  0
  6  7  2  0  0  0  0
  7 36  1  0  0  0  0
  8  9  2  0  0  0  0
  8 30  1  0  0  0  0
  9 10  1  0  0  0  0
  9 37  1  0  0  0  0
 10 12  1  0  0  0  0
 10 17  1  0  0  0  0
 10 11  1  6  0  0  0
 12 14  1  0  0  0  0
 12 13  1  1  0  0  0
 14 15  1  0  0  0  0
 14 38  1  0  0  0  0
 14 39  1  0  0  0  0
 15 16  1  0  0  0  0
 15 40  1  0  0  0  0
 15 41  1  0  0  0  0
 16 17  1  0  0  0  0
 16 21  1  0  0  0  0
 16 29  1  6  0  0  0
 17 19  1  0  0  0  0
 17 18  1  1  0  0  0
 19 20  1  0  0  0  0
 19 42  1  0  0  0  0
 19 43  1  0  0  0  0
 20 21  1  0  0  0  0
 20 44  1  0  0  0  0
 20 45  1  0  0  0  0
 21 26  1  6  0  0  0
 21 22  1  0  0  0  0
 22 23  1  0  0  0  0
 23 25  1  0  0  0  0
 23 24  2  0  0  0  0
 25 46  1  0  0  0  0
 25 47  1  0  0  0  0
 25 48  1  0  0  0  0
 26 28  1  0  0  0  0
 26 27  2  0  0  0  0
 28 49  1  0  0  0  0
 28 50  1  0  0  0  0
 28 51  1  0  0  0  0
 29 52  1  0  0  0  0
 29 53  1  0  0  0  0
 29 54  1  0  0  0  0
 31 55  1  0  0  0  0
 31 56  1  0  0  0  0
 31 57  1  0  0  0  0
M  END
$$$$