4447065 4447064
 OpenBabel01211413533D

 32 33  0  0  0  0  0  0  0  0999 V2000
    2.3703    0.8311    1.6876 O   0  0  0  0  0  0  0  0  0  0  0  0
    1.8031    0.1761    0.8064 N   0  0  0  0  0  0  0  0  0  0  0  0
    2.6498   -0.3031   -0.1486 N   0  0  0  0  0  0  0  0  0  0  0  0
    2.0725   -1.0867   -1.1782 C   0  0  0  0  0  0  0  0  0  0  0  0
    1.1603   -0.6298   -2.0791 C   0  0  0  0  0  0  0  0  0  0  0  0
    0.7313    0.7216   -2.1747 N   0  0  0  0  0  0  0  0  0  0  0  0
   -0.6060    1.0977   -2.6405 C   0  0  0  0  0  0  0  0  0  0  0  0
    1.6419    1.8586   -2.0333 C   0  0  0  0  0  0  0  0  0  0  0  0
    0.5782   -1.6001   -3.0940 C   0  0  0  0  0  0  0  0  0  0  0  0
   -0.1902   -1.2466   -3.9870 O   0  0  0  0  0  0  0  0  0  0  0  0
    0.9618   -3.0167   -3.0485 C   0  0  0  0  0  0  0  0  0  0  0  0
    1.8929   -3.4642   -2.1303 C   0  0  0  0  0  0  0  0  0  0  0  0
    2.5143   -2.5275   -1.1896 C   0  0  0  0  0  0  0  0  0  0  0  0
    3.3836   -2.9503   -0.4315 O   0  0  0  0  0  0  0  0  0  0  0  0
    2.2606   -4.8198   -2.1097 C   0  0  0  0  0  0  0  0  0  0  0  0
    1.6973   -5.7173   -3.0175 C   0  0  0  0  0  0  0  0  0  0  0  0
    0.7652   -5.2665   -3.9476 C   0  0  0  0  0  0  0  0  0  0  0  0
    0.3964   -3.9207   -3.9630 C   0  0  0  0  0  0  0  0  0  0  0  0
    4.1160   -0.2709   -0.0129 C   0  0  0  0  0  0  0  0  0  0  0  0
   -0.6147    1.2281   -3.7274 H   0  0  0  0  0  0  0  0  0  0  0  0
   -0.9149    2.0468   -2.1873 H   0  0  0  0  0  0  0  0  0  0  0  0
   -1.3558    0.3538   -2.3508 H   0  0  0  0  0  0  0  0  0  0  0  0
    2.6935    1.5586   -2.0766 H   0  0  0  0  0  0  0  0  0  0  0  0
    1.4560    2.3790   -1.0883 H   0  0  0  0  0  0  0  0  0  0  0  0
    1.4898    2.5744   -2.8493 H   0  0  0  0  0  0  0  0  0  0  0  0
    2.9911   -5.1812   -1.3876 H   0  0  0  0  0  0  0  0  0  0  0  0
    1.9890   -6.7650   -2.9995 H   0  0  0  0  0  0  0  0  0  0  0  0
    0.3263   -5.9593   -4.6623 H   0  0  0  0  0  0  0  0  0  0  0  0
   -0.3315   -3.5772   -4.6970 H   0  0  0  0  0  0  0  0  0  0  0  0
    4.4619   -1.0117    0.7148 H   0  0  0  0  0  0  0  0  0  0  0  0
    4.4523    0.7170    0.3217 H   0  0  0  0  0  0  0  0  0  0  0  0
    4.6044   -0.4557   -0.9766 H   0  0  0  0  0  0  0  0  0  0  0  0
  1  2  2  0  0  0  0
  2  3  1  0  0  0  0
  3 19  1  0  0  0  0
  3  4  1  0  0  0  0
  4  5  2  0  0  0  0
  4 13  1  0  0  0  0
  5  9  1  0  0  0  0
  5  6  1  0  0  0  0
  6  8  1  0  0  0  0
  6  7  1  0  0  0  0
  7 20  1  0  0  0  0
  7 21  1  0  0  0  0
  7 22  1  0  0  0  0
  8 23  1  0  0  0  0
  8 24  1  0  0  0  0
  8 25  1  0  0  0  0
  9 11  1  0  0  0  0
  9 10  2  0  0  0  0
 11 18  1  0  0  0  0
 11 12  2  0  0  0  0
 12 15  1  0  0  0  0
 12 13  1  0  0  0  0
 13 14  2  0  0  0  0
 15 16  2  0  0  0  0
 15 26  1  0  0  0  0
 16 17  1  0  0  0  0
 16 27  1  0  0  0  0
 17 18  2  0  0  0  0
 17 28  1  0  0  0  0
 18 29  1  0  0  0  0
 19 30  1  0  0  0  0
 19 31  1  0  0  0  0
 19 32  1  0  0  0  0
M  END
$$$$