5774000 5773999
 OpenBabel01211413543D

 41 43  0  0  1  0  0  0  0  0999 V2000
    0.8277   -0.0631    0.1735 C   0  0  0  0  0  0  0  0  0  0  0  0
    2.3286    0.0132    0.2381 C   0  0  0  0  0  0  0  0  0  0  0  0
    3.0820   -1.1644    0.1120 C   0  0  0  0  0  0  0  0  0  0  0  0
    4.4885   -1.1514    0.1388 C   0  0  0  0  0  0  0  0  0  0  0  0
    5.2346   -2.4463   -0.0647 C   0  0  0  0  0  0  0  0  0  0  0  0
    5.8740   -2.6046   -1.7545 S   0  0  0  0  0  0  0  0  0  0  0  0
    7.4676   -1.7485   -1.5668 C   0  0  3  0  0  0  0  0  0  0  0  0
    7.3236    0.0574   -1.4137 S   0  0  0  0  0  0  0  0  0  0  0  0
    6.6618    0.1755    0.2703 C   0  0  0  0  0  0  0  0  0  0  0  0
    5.1569    0.0762    0.2960 C   0  0  0  0  0  0  0  0  0  0  0  0
    4.3991    1.2542    0.4259 C   0  0  0  0  0  0  0  0  0  0  0  0
    2.9956    1.2371    0.4102 C   0  0  0  0  0  0  0  0  0  0  0  0
    2.2467    2.5380    0.5079 C   0  0  0  0  0  0  0  0  0  0  0  0
    8.2635   -2.0253   -2.8154 C   0  0  0  0  0  0  0  0  0  0  0  0
    9.4381   -2.6791   -2.8438 C   0  0  0  0  0  0  0  0  0  0  0  0
   10.2006   -2.9412   -4.0734 C   0  0  0  0  0  0  0  0  0  0  0  0
    9.5765   -3.2319   -5.2942 C   0  0  0  0  0  0  0  0  0  0  0  0
   10.3355   -3.5033   -6.4357 C   0  0  0  0  0  0  0  0  0  0  0  0
   11.7266   -3.4999   -6.3662 C   0  0  0  0  0  0  0  0  0  0  0  0
   12.3596   -3.2299   -5.1549 C   0  0  0  0  0  0  0  0  0  0  0  0
   11.6002   -2.9573   -4.0136 C   0  0  0  0  0  0  0  0  0  0  0  0
    0.4851   -1.0799   -0.0463 H   0  0  0  0  0  0  0  0  0  0  0  0
    0.4467    0.5873   -0.6205 H   0  0  0  0  0  0  0  0  0  0  0  0
    0.3914    0.2346    1.1319 H   0  0  0  0  0  0  0  0  0  0  0  0
    2.5628   -2.1107   -0.0362 H   0  0  0  0  0  0  0  0  0  0  0  0
    6.0323   -2.5675    0.6759 H   0  0  0  0  0  0  0  0  0  0  0  0
    4.5568   -3.2914    0.1036 H   0  0  0  0  0  0  0  0  0  0  0  0
    7.9980   -2.1489   -0.6960 H   0  0  0  0  0  0  0  0  0  0  0  0
    7.1216   -0.5665    0.9317 H   0  0  0  0  0  0  0  0  0  0  0  0
    6.9728    1.1477    0.6704 H   0  0  0  0  0  0  0  0  0  0  0  0
    4.9144    2.2096    0.5195 H   0  0  0  0  0  0  0  0  0  0  0  0
    1.4239    2.4617    1.2252 H   0  0  0  0  0  0  0  0  0  0  0  0
    1.8495    2.8158   -0.4736 H   0  0  0  0  0  0  0  0  0  0  0  0
    2.8972    3.3484    0.8538 H   0  0  0  0  0  0  0  0  0  0  0  0
    7.8349   -1.6463   -3.7425 H   0  0  0  0  0  0  0  0  0  0  0  0
    9.8901   -3.0361   -1.9218 H   0  0  0  0  0  0  0  0  0  0  0  0
    8.4920   -3.2590   -5.3704 H   0  0  0  0  0  0  0  0  0  0  0  0
    9.8377   -3.7211   -7.3771 H   0  0  0  0  0  0  0  0  0  0  0  0
   12.3164   -3.7113   -7.2541 H   0  0  0  0  0  0  0  0  0  0  0  0
   13.4447   -3.2305   -5.0969 H   0  0  0  0  0  0  0  0  0  0  0  0
   12.1142   -2.7466   -3.0787 H   0  0  0  0  0  0  0  0  0  0  0  0
  1  2  1  0  0  0  0
  1 22  1  0  0  0  0
  1 23  1  0  0  0  0
  1 24  1  0  0  0  0
  2  3  2  0  0  0  0
  2 12  1  0  0  0  0
  3  4  1  0  0  0  0
  3 25  1  0  0  0  0
  4  5  1  0  0  0  0
  4 10  2  0  0  0  0
  5  6  1  0  0  0  0
  5 26  1  0  0  0  0
  5 27  1  0  0  0  0
  6  7  1  0  0  0  0
  7  8  1  0  0  0  0
  7 14  1  0  0  0  0
  7 28  1  0  0  0  0
  8  9  1  0  0  0  0
  9 10  1  0  0  0  0
  9 29  1  0  0  0  0
  9 30  1  0  0  0  0
 10 11  1  0  0  0  0
 11 12  2  0  0  0  0
 11 31  1  0  0  0  0
 12 13  1  0  0  0  0
 13 32  1  0  0  0  0
 13 33  1  0  0  0  0
 13 34  1  0  0  0  0
 14 15  2  0  0  0  0
 14 35  1  0  0  0  0
 15 16  1  0  0  0  0
 15 36  1  0  0  0  0
 16 17  2  0  0  0  0
 16 21  1  0  0  0  0
 17 18  1  0  0  0  0
 17 37  1  0  0  0  0
 18 19  2  0  0  0  0
 18 38  1  0  0  0  0
 19 20  1  0  0  0  0
 19 39  1  0  0  0  0
 20 21  2  0  0  0  0
 20 40  1  0  0  0  0
 21 41  1  0  0  0  0
M  END
$$$$