490978 490977
 OpenBabel01211413183D

 13 12  0  0  0  0  0  0  0  0999 V2000
    1.4312   -0.8734    0.5094 O   0  0  0  0  0  0  0  0  0  0  0  0
    2.2712   -0.0941    0.0737 C   0  0  0  0  0  0  0  0  0  0  0  0
    3.0071    0.9364    0.9088 C   0  0  0  0  0  0  0  0  0  0  0  0
    2.6765    0.8029    2.3903 C   0  0  0  0  0  0  0  0  0  0  0  0
    4.5055    0.7983    0.6668 C   0  0  0  0  0  0  0  0  0  0  0  0
    2.5030   -0.0765   -1.0062 H   0  0  0  0  0  0  0  0  0  0  0  0
    2.6777    1.9209    0.5568 H   0  0  0  0  0  0  0  0  0  0  0  0
    2.9680   -0.1799    2.7773 H   0  0  0  0  0  0  0  0  0  0  0  0
    1.6010    0.9197    2.5622 H   0  0  0  0  0  0  0  0  0  0  0  0
    3.1958    1.5681    2.9765 H   0  0  0  0  0  0  0  0  0  0  0  0
    4.8684   -0.1886    0.9753 H   0  0  0  0  0  0  0  0  0  0  0  0
    5.0634    1.5581    1.2238 H   0  0  0  0  0  0  0  0  0  0  0  0
    4.7430    0.9171   -0.3962 H   0  0  0  0  0  0  0  0  0  0  0  0
  1  2  2  0  0  0  0
  2  3  1  0  0  0  0
  2  6  1  0  0  0  0
  3  5  1  0  0  0  0
  3  4  1  0  0  0  0
  3  7  1  0  0  0  0
  4  8  1  0  0  0  0
  4  9  1  0  0  0  0
  4 10  1  0  0  0  0
  5 11  1  0  0  0  0
  5 12  1  0  0  0  0
  5 13  1  0  0  0  0
M  END
$$$$