656903 656902
 OpenBabel01211413303D

 36 37  0  0  0  0  0  0  0  0999 V2000
    4.5131   -1.8582    1.6317 O   0  0  0  0  0  0  0  0  0  0  0  0
    4.6697   -1.1556    0.6311 C   0  0  0  0  0  0  0  0  0  0  0  0
    5.9955   -0.4821    0.3630 C   0  0  0  0  0  0  0  0  0  0  0  0
    6.3298   -0.5534   -1.1166 C   0  0  0  0  0  0  0  0  0  0  0  0
    5.2483    0.1162   -1.9474 C   0  0  0  0  0  0  0  0  0  0  0  0
    3.9168   -0.5567   -1.7061 C   0  0  0  0  0  0  0  0  0  0  0  0
    3.1438   -0.7727   -2.6396 O   0  0  0  0  0  0  0  0  0  0  0  0
    3.5005   -0.8146   -0.2716 C   0  0  0  0  0  0  0  0  0  0  0  0
    2.7285    0.3962    0.2652 C   0  0  0  0  0  0  0  0  0  0  0  0
    1.9443    0.0693    1.5405 C   0  0  0  0  0  0  0  0  0  0  0  0
    1.0989    1.2470    1.9958 C   0  0  0  0  0  0  0  0  0  0  0  0
    1.4127    2.4080    1.7297 O   0  0  0  0  0  0  0  0  0  0  0  0
   -0.1228    0.9697    2.8155 C   0  0  0  0  0  0  0  0  0  0  0  0
   -0.1928   -0.1976    3.5943 C   0  0  0  0  0  0  0  0  0  0  0  0
   -1.3334   -0.4755    4.3485 C   0  0  0  0  0  0  0  0  0  0  0  0
   -2.4108    0.4041    4.3252 C   0  0  0  0  0  0  0  0  0  0  0  0
   -2.3424    1.5720    3.5633 C   0  0  0  0  0  0  0  0  0  0  0  0
   -1.1871    1.8965    2.8383 C   0  0  0  0  0  0  0  0  0  0  0  0
   -1.2320    3.0125    1.9783 N   0  0  0  0  0  0  0  0  0  0  0  0
    6.7735   -0.9923    0.9408 H   0  0  0  0  0  0  0  0  0  0  0  0
    5.9361    0.5554    0.7092 H   0  0  0  0  0  0  0  0  0  0  0  0
    7.2931   -0.0656   -1.3019 H   0  0  0  0  0  0  0  0  0  0  0  0
    6.4296   -1.6030   -1.4205 H   0  0  0  0  0  0  0  0  0  0  0  0
    5.1529    1.1783   -1.6980 H   0  0  0  0  0  0  0  0  0  0  0  0
    5.4975    0.0339   -3.0106 H   0  0  0  0  0  0  0  0  0  0  0  0
    2.8544   -1.7019   -0.2996 H   0  0  0  0  0  0  0  0  0  0  0  0
    2.0260    0.7558   -0.4990 H   0  0  0  0  0  0  0  0  0  0  0  0
    3.4172    1.2295    0.4578 H   0  0  0  0  0  0  0  0  0  0  0  0
    2.6282   -0.1777    2.3588 H   0  0  0  0  0  0  0  0  0  0  0  0
    1.2953   -0.7901    1.3429 H   0  0  0  0  0  0  0  0  0  0  0  0
    0.6321   -0.9040    3.6321 H   0  0  0  0  0  0  0  0  0  0  0  0
   -1.3858   -1.3841    4.9434 H   0  0  0  0  0  0  0  0  0  0  0  0
   -3.3117    0.1782    4.8903 H   0  0  0  0  0  0  0  0  0  0  0  0
   -3.2067    2.2310    3.5317 H   0  0  0  0  0  0  0  0  0  0  0  0
   -0.2853    3.3118    1.7136 H   0  0  0  0  0  0  0  0  0  0  0  0
   -1.7798    3.7861    2.3398 H   0  0  0  0  0  0  0  0  0  0  0  0
  1  2  2  0  0  0  0
  2  8  1  0  0  0  0
  2  3  1  0  0  0  0
  3  4  1  0  0  0  0
  3 20  1  0  0  0  0
  3 21  1  0  0  0  0
  4  5  1  0  0  0  0
  4 22  1  0  0  0  0
  4 23  1  0  0  0  0
  5  6  1  0  0  0  0
  5 24  1  0  0  0  0
  5 25  1  0  0  0  0
  6  8  1  0  0  0  0
  6  7  2  0  0  0  0
  8  9  1  0  0  0  0
  8 26  1  0  0  0  0
  9 10  1  0  0  0  0
  9 27  1  0  0  0  0
  9 28  1  0  0  0  0
 10 11  1  0  0  0  0
 10 29  1  0  0  0  0
 10 30  1  0  0  0  0
 11 13  1  0  0  0  0
 11 12  2  0  0  0  0
 13 14  2  0  0  0  0
 13 18  1  0  0  0  0
 14 15  1  0  0  0  0
 14 31  1  0  0  0  0
 15 16  2  0  0  0  0
 15 32  1  0  0  0  0
 16 17  1  0  0  0  0
 16 33  1  0  0  0  0
 17 18  2  0  0  0  0
 17 34  1  0  0  0  0
 18 19  1  0  0  0  0
 19 35  1  0  0  0  0
 19 36  1  0  0  0  0
M  END
$$$$