2193103 2193102
 OpenBabel01211413473D

 51 53  0  0  1  0  0  0  0  0999 V2000
    0.9895    0.9236    0.2422 C   0  0  0  0  0  0  0  0  0  0  0  0
    2.3359    0.2042    0.3550 C   0  0  3  0  0  0  0  0  0  0  0  0
    2.5121   -0.4046    1.6941 N   0  0  0  0  0  0  0  0  0  0  0  0
    1.5319   -1.6860    2.1587 S   0  0  3  0  0  0  0  0  0  0  0  0
    1.8120   -2.9129    1.3437 O   0  0  0  0  0  0  0  0  0  0  0  0
    2.4068   -1.9478    3.7260 C   0  0  0  0  0  0  0  0  0  0  0  0
    3.0264   -3.1698    3.9964 C   0  0  0  0  0  0  0  0  0  0  0  0
    3.6565   -3.3864    5.2256 C   0  0  0  0  0  0  0  0  0  0  0  0
    3.6708   -2.3821    6.2044 C   0  0  0  0  0  0  0  0  0  0  0  0
    3.0418   -1.1442    5.9371 C   0  0  0  0  0  0  0  0  0  0  0  0
    2.4146   -0.9417    4.6991 C   0  0  0  0  0  0  0  0  0  0  0  0
    3.0580   -0.1390    6.9170 C   0  0  0  0  0  0  0  0  0  0  0  0
    3.6784   -0.3549    8.1483 C   0  0  0  0  0  0  0  0  0  0  0  0
    4.2917   -1.5758    8.4138 C   0  0  0  0  0  0  0  0  0  0  0  0
    4.2893   -2.5833    7.4486 C   0  0  0  0  0  0  0  0  0  0  0  0
    2.5463   -0.8236   -0.7746 C   0  0  0  0  0  0  0  0  0  0  0  0
    2.5859   -0.2000   -2.0619 O   0  0  0  0  0  0  0  0  0  0  0  0
    2.7325   -1.0759   -3.1116 C   0  0  0  0  0  0  0  0  0  0  0  0
    2.6350   -0.5165   -4.3852 C   0  0  0  0  0  0  0  0  0  0  0  0
    2.7769   -1.3158   -5.5266 C   0  0  0  0  0  0  0  0  0  0  0  0
    3.0275   -2.6910   -5.4116 C   0  0  0  0  0  0  0  0  0  0  0  0
    3.1184   -3.2448   -4.1299 C   0  0  0  0  0  0  0  0  0  0  0  0
    2.9719   -2.4475   -2.9932 C   0  0  0  0  0  0  0  0  0  0  0  0
    3.2027   -3.5911   -6.6199 C   0  0  0  0  0  0  0  0  0  0  0  0
    1.9154   -3.6880   -7.4394 C   0  0  0  0  0  0  0  0  0  0  0  0
    4.3814   -3.1482   -7.4884 C   0  0  0  0  0  0  0  0  0  0  0  0
    0.9310    1.4927   -0.6916 H   0  0  0  0  0  0  0  0  0  0  0  0
    0.8577    1.6337    1.0667 H   0  0  0  0  0  0  0  0  0  0  0  0
    0.1480    0.2233    0.2592 H   0  0  0  0  0  0  0  0  0  0  0  0
    3.1059    0.9801    0.2519 H   0  0  0  0  0  0  0  0  0  0  0  0
    3.5056   -0.6147    1.7953 H   0  0  0  0  0  0  0  0  0  0  0  0
    3.0189   -3.9702    3.2579 H   0  0  0  0  0  0  0  0  0  0  0  0
    4.1277   -4.3478    5.4125 H   0  0  0  0  0  0  0  0  0  0  0  0
    1.9220    0.0061    4.4914 H   0  0  0  0  0  0  0  0  0  0  0  0
    2.5822    0.8216    6.7296 H   0  0  0  0  0  0  0  0  0  0  0  0
    3.6802    0.4304    8.8997 H   0  0  0  0  0  0  0  0  0  0  0  0
    4.7724   -1.7456    9.3736 H   0  0  0  0  0  0  0  0  0  0  0  0
    4.7722   -3.5316    7.6755 H   0  0  0  0  0  0  0  0  0  0  0  0
    1.7242   -1.5484   -0.7654 H   0  0  0  0  0  0  0  0  0  0  0  0
    3.5044   -1.3284   -0.5945 H   0  0  0  0  0  0  0  0  0  0  0  0
    2.4433    0.5479   -4.4947 H   0  0  0  0  0  0  0  0  0  0  0  0
    2.6912   -0.8507   -6.5058 H   0  0  0  0  0  0  0  0  0  0  0  0
    3.3062   -4.3084   -3.9988 H   0  0  0  0  0  0  0  0  0  0  0  0
    3.0534   -2.9406   -2.0298 H   0  0  0  0  0  0  0  0  0  0  0  0
    3.4340   -4.6052   -6.2664 H   0  0  0  0  0  0  0  0  0  0  0  0
    1.6379   -2.7249   -7.8806 H   0  0  0  0  0  0  0  0  0  0  0  0
    1.0792   -4.0235   -6.8154 H   0  0  0  0  0  0  0  0  0  0  0  0
    2.0333   -4.4093   -8.2553 H   0  0  0  0  0  0  0  0  0  0  0  0
    4.2088   -2.1680   -7.9451 H   0  0  0  0  0  0  0  0  0  0  0  0
    4.5542   -3.8672   -8.2963 H   0  0  0  0  0  0  0  0  0  0  0  0
    5.3009   -3.0841   -6.8954 H   0  0  0  0  0  0  0  0  0  0  0  0
  1  2  1  0  0  0  0
  1 27  1  0  0  0  0
  1 28  1  0  0  0  0
  1 29  1  0  0  0  0
  2 16  1  0  0  0  0
  2  3  1  0  0  0  0
  2 30  1  0  0  0  0
  3  4  1  0  0  0  0
  3 31  1  0  0  0  0
  4  6  1  0  0  0  0
  4  5  2  0  0  0  0
  6  7  2  0  0  0  0
  6 11  1  0  0  0  0
  7  8  1  0  0  0  0
  7 32  1  0  0  0  0
  8  9  2  0  0  0  0
  8 33  1  0  0  0  0
  9 15  1  0  0  0  0
  9 10  1  0  0  0  0
 10 12  1  0  0  0  0
 10 11  2  0  0  0  0
 11 34  1  0  0  0  0
 12 13  2  0  0  0  0
 12 35  1  0  0  0  0
 13 14  1  0  0  0  0
 13 36  1  0  0  0  0
 14 15  2  0  0  0  0
 14 37  1  0  0  0  0
 15 38  1  0  0  0  0
 16 17  1  0  0  0  0
 16 39  1  0  0  0  0
 16 40  1  0  0  0  0
 17 18  1  0  0  0  0
 18 19  2  0  0  0  0
 18 23  1  0  0  0  0
 19 20  1  0  0  0  0
 19 41  1  0  0  0  0
 20 21  2  0  0  0  0
 20 42  1  0  0  0  0
 21 22  1  0  0  0  0
 21 24  1  0  0  0  0
 22 23  2  0  0  0  0
 22 43  1  0  0  0  0
 23 44  1  0  0  0  0
 24 26  1  0  0  0  0
 24 25  1  0  0  0  0
 24 45  1  0  0  0  0
 25 46  1  0  0  0  0
 25 47  1  0  0  0  0
 25 48  1  0  0  0  0
 26 49  1  0  0  0  0
 26 50  1  0  0  0  0
 26 51  1  0  0  0  0
M  END
$$$$