504352 504351
 OpenBabel01211413203D

 11 10  0  0  0  0  0  0  0  0999 V2000
    2.8233    0.3791   -1.2414 C   0  0  0  0  0  0  0  0  0  0  0  0
    2.2582    0.0388   -0.0733 C   0  0  0  0  0  0  0  0  0  0  0  0
    3.1542   -0.7114    1.2852 P   0  0  0  0  0  0  0  0  0  0  0  0
    2.1373   -0.2691    2.3507 O   0  0  0  0  0  0  0  0  0  0  0  0
    2.6476   -2.2056    0.8577 O   0  0  0  0  0  0  0  0  0  0  0  0
    4.0192   -1.4356    2.5968 O   0  0  0  0  0  0  0  0  0  0  0  0
    2.2330    0.8316   -2.0322 H   0  0  0  0  0  0  0  0  0  0  0  0
    3.8773    0.2042   -1.4329 H   0  0  0  0  0  0  0  0  0  0  0  0
    1.2003    0.2250    0.0767 H   0  0  0  0  0  0  0  0  0  0  0  0
    1.8798   -2.4604    1.4008 H   0  0  0  0  0  0  0  0  0  0  0  0
    3.3828   -1.3974    3.3402 H   0  0  0  0  0  0  0  0  0  0  0  0
  1  2  2  0  0  0  0
  1  7  1  0  0  0  0
  1  8  1  0  0  0  0
  2  3  1  0  0  0  0
  2  9  1  0  0  0  0
  3  6  1  0  0  0  0
  3  5  1  0  0  0  0
  3  4  2  0  0  0  0
  5 10  1  0  0  0  0
  6 11  1  0  0  0  0
M  END
$$$$