601748 601747
 OpenBabel01211413273D

 29 31  0  0  0  0  0  0  0  0999 V2000
    2.6370    1.0225   -1.1441 O   0  0  0  0  0  0  0  0  0  0  0  0
    2.3670   -0.3484   -0.5870 S   0  0  3  0  0  0  0  0  0  0  0  0
    2.8526   -1.5170   -1.8000 C   0  0  0  0  0  0  0  0  0  0  0  0
    2.7059   -3.1889   -1.5255 S   0  0  0  0  0  0  0  0  0  0  0  0
    3.3025   -3.5774   -3.0924 C   0  0  0  0  0  0  0  0  0  0  0  0
    3.6097   -2.4254   -3.8239 C   0  0  0  0  0  0  0  0  0  0  0  0
    3.3356   -1.2348   -3.0595 C   0  0  0  0  0  0  0  0  0  0  0  0
    3.5469    0.0134   -3.5368 N   0  0  0  0  0  0  0  0  0  0  0  0
    4.1215   -2.5969   -5.1369 C   0  0  0  0  0  0  0  0  0  0  0  0
    4.3028   -3.8753   -5.6739 C   0  0  0  0  0  0  0  0  0  0  0  0
    3.9839   -4.9989   -4.9263 C   0  0  0  0  0  0  0  0  0  0  0  0
    3.4820   -4.8679   -3.6304 C   0  0  0  0  0  0  0  0  0  0  0  0
    3.6478   -0.6403    0.6551 C   0  0  0  0  0  0  0  0  0  0  0  0
    3.3827   -1.4840    1.7399 C   0  0  0  0  0  0  0  0  0  0  0  0
    4.3667   -1.7177    2.7025 C   0  0  0  0  0  0  0  0  0  0  0  0
    5.6151   -1.1070    2.5873 C   0  0  0  0  0  0  0  0  0  0  0  0
    5.8823   -0.2607    1.5120 C   0  0  0  0  0  0  0  0  0  0  0  0
    4.9005   -0.0259    0.5482 C   0  0  0  0  0  0  0  0  0  0  0  0
    3.2572    0.8276   -2.9843 H   0  0  0  0  0  0  0  0  0  0  0  0
    3.7252    0.2161   -4.5132 H   0  0  0  0  0  0  0  0  0  0  0  0
    4.3809   -1.7268   -5.7338 H   0  0  0  0  0  0  0  0  0  0  0  0
    4.6974   -3.9856   -6.6818 H   0  0  0  0  0  0  0  0  0  0  0  0
    4.1272   -5.9901   -5.3498 H   0  0  0  0  0  0  0  0  0  0  0  0
    3.2357   -5.7497   -3.0462 H   0  0  0  0  0  0  0  0  0  0  0  0
    2.4138   -1.9660    1.8433 H   0  0  0  0  0  0  0  0  0  0  0  0
    4.1603   -2.3758    3.5429 H   0  0  0  0  0  0  0  0  0  0  0  0
    6.3810   -1.2893    3.3372 H   0  0  0  0  0  0  0  0  0  0  0  0
    6.8545    0.2175    1.4226 H   0  0  0  0  0  0  0  0  0  0  0  0
    5.1163    0.6360   -0.2882 H   0  0  0  0  0  0  0  0  0  0  0  0
  1  2  2  0  0  0  0
  2 13  1  0  0  0  0
  2  3  1  0  0  0  0
  3  4  1  0  0  0  0
  3  7  2  0  0  0  0
  4  5  1  0  0  0  0
  5 12  1  0  0  0  0
  5  6  2  0  0  0  0
  6  7  1  0  0  0  0
  6  9  1  0  0  0  0
  7  8  1  0  0  0  0
  8 19  1  0  0  0  0
  8 20  1  0  0  0  0
  9 10  2  0  0  0  0
  9 21  1  0  0  0  0
 10 11  1  0  0  0  0
 10 22  1  0  0  0  0
 11 12  2  0  0  0  0
 11 23  1  0  0  0  0
 12 24  1  0  0  0  0
 13 14  2  0  0  0  0
 13 18  1  0  0  0  0
 14 15  1  0  0  0  0
 14 25  1  0  0  0  0
 15 16  2  0  0  0  0
 15 26  1  0  0  0  0
 16 17  1  0  0  0  0
 16 27  1  0  0  0  0
 17 18  2  0  0  0  0
 17 28  1  0  0  0  0
 18 29  1  0  0  0  0
M  END
$$$$