2339890 2339889
 OpenBabel01211413483D

 38 40  0  0  1  0  0  0  0  0999 V2000
    1.0585   -1.2896   -0.4852 C   0  0  0  0  0  0  0  0  0  0  0  0
    2.4288   -1.3248   -0.0893 O   0  0  0  0  0  0  0  0  0  0  0  0
    2.8836   -0.1420    0.4032 C   0  0  0  0  0  0  0  0  0  0  0  0
    2.2294    0.8863    0.5154 O   0  0  0  0  0  0  0  0  0  0  0  0
    4.2661   -0.2572    0.9633 C   0  0  3  0  0  0  0  0  0  0  0  0
    4.2992   -0.2884    2.4803 C   0  0  0  0  0  0  0  0  0  0  0  0
    5.2848   -1.1430    0.2904 C   0  0  0  0  0  0  0  0  0  0  0  0
    5.4463    0.3719    0.1615 C   0  0  3  0  0  0  0  0  0  0  0  0
    5.2692    0.9195   -1.2660 C   0  0  0  0  0  0  0  0  0  0  0  0
    4.4032    1.9845   -1.5635 C   0  0  0  0  0  0  0  0  0  0  0  0
    4.2756    2.4835   -2.8643 C   0  0  0  0  0  0  0  0  0  0  0  0
    5.0309    1.9407   -3.8993 C   0  0  0  0  0  0  0  0  0  0  0  0
    5.9150    0.9014   -3.6338 C   0  0  0  0  0  0  0  0  0  0  0  0
    6.0302    0.4015   -2.3340 C   0  0  0  0  0  0  0  0  0  0  0  0
    6.5666    1.0623    0.9539 C   0  0  0  0  0  0  0  0  0  0  0  0
    7.8947    0.6012    0.9104 C   0  0  0  0  0  0  0  0  0  0  0  0
    8.9102    1.2285    1.6370 C   0  0  0  0  0  0  0  0  0  0  0  0
    8.6190    2.3380    2.4249 C   0  0  0  0  0  0  0  0  0  0  0  0
    7.3175    2.8276    2.4741 C   0  0  0  0  0  0  0  0  0  0  0  0
    6.3083    2.2019    1.7380 C   0  0  0  0  0  0  0  0  0  0  0  0
    0.7786   -2.2878   -0.8322 H   0  0  0  0  0  0  0  0  0  0  0  0
    0.9139   -0.5812   -1.3059 H   0  0  0  0  0  0  0  0  0  0  0  0
    0.4199   -1.0319    0.3666 H   0  0  0  0  0  0  0  0  0  0  0  0
    5.2987   -0.4842    2.8818 H   0  0  0  0  0  0  0  0  0  0  0  0
    3.6411   -1.0835    2.8485 H   0  0  0  0  0  0  0  0  0  0  0  0
    3.9414    0.6615    2.8896 H   0  0  0  0  0  0  0  0  0  0  0  0
    4.9696   -1.7143   -0.5777 H   0  0  0  0  0  0  0  0  0  0  0  0
    5.9877   -1.6909    0.9086 H   0  0  0  0  0  0  0  0  0  0  0  0
    3.8169    2.4430   -0.7697 H   0  0  0  0  0  0  0  0  0  0  0  0
    3.5896    3.3026   -3.0634 H   0  0  0  0  0  0  0  0  0  0  0  0
    4.9383    2.3337   -4.9082 H   0  0  0  0  0  0  0  0  0  0  0  0
    6.5214    0.4823   -4.4323 H   0  0  0  0  0  0  0  0  0  0  0  0
    6.7392   -0.4018   -2.1450 H   0  0  0  0  0  0  0  0  0  0  0  0
    8.1436   -0.2602    0.2949 H   0  0  0  0  0  0  0  0  0  0  0  0
    9.9277    0.8507    1.5838 H   0  0  0  0  0  0  0  0  0  0  0  0
    9.4064    2.8250    2.9937 H   0  0  0  0  0  0  0  0  0  0  0  0
    7.0847    3.6980    3.0818 H   0  0  0  0  0  0  0  0  0  0  0  0
    5.2976    2.6040    1.7805 H   0  0  0  0  0  0  0  0  0  0  0  0
  1  2  1  0  0  0  0
  1 21  1  0  0  0  0
  1 22  1  0  0  0  0
  1 23  1  0  0  0  0
  2  3  1  0  0  0  0
  3  5  1  0  0  0  0
  3  4  2  0  0  0  0
  5  8  1  0  0  0  0
  5  7  1  0  0  0  0
  5  6  1  0  0  0  0
  6 24  1  0  0  0  0
  6 25  1  0  0  0  0
  6 26  1  0  0  0  0
  7  8  1  0  0  0  0
  7 27  1  0  0  0  0
  7 28  1  0  0  0  0
  8 15  1  0  0  0  0
  8  9  1  0  0  0  0
  9 10  2  0  0  0  0
  9 14  1  0  0  0  0
 10 11  1  0  0  0  0
 10 29  1  0  0  0  0
 11 12  2  0  0  0  0
 11 30  1  0  0  0  0
 12 13  1  0  0  0  0
 12 31  1  0  0  0  0
 13 14  2  0  0  0  0
 13 32  1  0  0  0  0
 14 33  1  0  0  0  0
 15 16  2  0  0  0  0
 15 20  1  0  0  0  0
 16 17  1  0  0  0  0
 16 34  1  0  0  0  0
 17 18  2  0  0  0  0
 17 35  1  0  0  0  0
 18 19  1  0  0  0  0
 18 36  1  0  0  0  0
 19 20  2  0  0  0  0
 19 37  1  0  0  0  0
 20 38  1  0  0  0  0
M  END
$$$$