707177 707176
 OpenBabel01211413323D

 36 37  0  0  0  0  0  0  0  0999 V2000
    1.0201    0.0067    0.0308 C   0  0  0  0  0  0  0  0  0  0  0  0
    2.4148   -0.5187    0.3337 C   0  0  0  0  0  0  0  0  0  0  0  0
    2.8779   -1.5109   -0.7027 C   0  0  0  0  0  0  0  0  0  0  0  0
    3.5695   -1.0629   -1.8435 C   0  0  0  0  0  0  0  0  0  0  0  0
    4.0106   -1.9454   -2.8251 C   0  0  0  0  0  0  0  0  0  0  0  0
    3.7727   -3.3162   -2.7025 C   0  0  0  0  0  0  0  0  0  0  0  0
    3.0727   -3.8092   -1.5812 C   0  0  0  0  0  0  0  0  0  0  0  0
    2.6428   -2.8982   -0.6219 C   0  0  0  0  0  0  0  0  0  0  0  0
    1.9874   -3.6264    0.3407 N   0  0  0  0  0  0  0  0  0  0  0  0
    1.5663   -3.2007    1.1531 H   0  0  0  0  0  0  0  0  0  0  0  0
    1.9848   -4.9781    0.0585 C   0  0  0  0  0  0  0  0  0  0  0  0
    2.6707   -5.1205   -1.1531 C   0  0  0  0  0  0  0  0  0  0  0  0
    2.9406   -6.3631   -1.8654 C   0  0  0  0  0  0  0  0  0  0  0  0
    3.5419   -6.4347   -2.9348 O   0  0  0  0  0  0  0  0  0  0  0  0
    1.3186   -5.9854    1.0006 C   0  0  0  0  0  0  0  0  0  0  0  0
    0.6649   -5.2976    2.2232 C   0  0  0  0  0  0  0  0  0  0  0  0
    0.2002   -6.7470    0.2641 C   0  0  0  0  0  0  0  0  0  0  0  0
    2.3673   -6.9731    1.5461 C   0  0  0  0  0  0  0  0  0  0  0  0
    0.7045    0.7090    0.8079 H   0  0  0  0  0  0  0  0  0  0  0  0
    0.2884   -0.8069   -0.0098 H   0  0  0  0  0  0  0  0  0  0  0  0
    0.9946    0.5302   -0.9304 H   0  0  0  0  0  0  0  0  0  0  0  0
    2.4225   -0.9898    1.3241 H   0  0  0  0  0  0  0  0  0  0  0  0
    3.1234    0.3170    0.3903 H   0  0  0  0  0  0  0  0  0  0  0  0
    3.7710   -0.0004   -1.9688 H   0  0  0  0  0  0  0  0  0  0  0  0
    4.5456   -1.5696   -3.6933 H   0  0  0  0  0  0  0  0  0  0  0  0
    4.1249   -3.9970   -3.4745 H   0  0  0  0  0  0  0  0  0  0  0  0
    2.5761   -7.2866   -1.3963 H   0  0  0  0  0  0  0  0  0  0  0  0
    1.4030   -4.7516    2.8226 H   0  0  0  0  0  0  0  0  0  0  0  0
    0.1924   -6.0334    2.8849 H   0  0  0  0  0  0  0  0  0  0  0  0
   -0.1142   -4.5887    1.9184 H   0  0  0  0  0  0  0  0  0  0  0  0
    0.5774   -7.3472   -0.5679 H   0  0  0  0  0  0  0  0  0  0  0  0
   -0.5446   -6.0544   -0.1461 H   0  0  0  0  0  0  0  0  0  0  0  0
   -0.3214   -7.4336    0.9412 H   0  0  0  0  0  0  0  0  0  0  0  0
    2.8314   -7.5703    0.7565 H   0  0  0  0  0  0  0  0  0  0  0  0
    1.9159   -7.6761    2.2561 H   0  0  0  0  0  0  0  0  0  0  0  0
    3.1730   -6.4436    2.0688 H   0  0  0  0  0  0  0  0  0  0  0  0
  1  2  1  0  0  0  0
  1 19  1  0  0  0  0
  1 20  1  0  0  0  0
  1 21  1  0  0  0  0
  2  3  1  0  0  0  0
  2 22  1  0  0  0  0
  2 23  1  0  0  0  0
  3  4  2  0  0  0  0
  3  8  1  0  0  0  0
  4  5  1  0  0  0  0
  4 24  1  0  0  0  0
  5  6  2  0  0  0  0
  5 25  1  0  0  0  0
  6  7  1  0  0  0  0
  6 26  1  0  0  0  0
  7 12  1  0  0  0  0
  7  8  2  0  0  0  0
  8  9  1  0  0  0  0
  9 11  1  0  0  0  0
  9 10  1  0  0  0  0
 11 12  2  0  0  0  0
 11 15  1  0  0  0  0
 12 13  1  0  0  0  0
 13 14  2  0  0  0  0
 13 27  1  0  0  0  0
 15 18  1  0  0  0  0
 15 17  1  0  0  0  0
 15 16  1  0  0  0  0
 16 28  1  0  0  0  0
 16 29  1  0  0  0  0
 16 30  1  0  0  0  0
 17 31  1  0  0  0  0
 17 32  1  0  0  0  0
 17 33  1  0  0  0  0
 18 34  1  0  0  0  0
 18 35  1  0  0  0  0
 18 36  1  0  0  0  0
M  END
$$$$