534032 534031
 OpenBabel01211413233D

 21 21  0  0  0  0  0  0  0  0999 V2000
    4.0222    0.4284    1.0599 C   0  0  0  0  0  0  0  0  0  0  0  0
    3.8511    1.0387   -0.1207 C   0  0  0  0  0  0  0  0  0  0  0  0
    4.8363    1.9786   -0.7476 C   0  0  0  0  0  0  0  0  0  0  0  0
    5.1775    1.4341   -2.0480 N   0  0  0  0  0  0  0  0  0  0  0  0
    6.1108    2.0820   -2.8623 C   0  0  0  0  0  0  0  0  0  0  0  0
    6.5815    3.3803   -2.6338 C   0  0  0  0  0  0  0  0  0  0  0  0
    7.4603    4.0014   -3.5290 C   0  0  0  0  0  0  0  0  0  0  0  0
    7.8566    3.3450   -4.6901 C   0  0  0  0  0  0  0  0  0  0  0  0
    7.3701    2.0700   -4.9573 C   0  0  0  0  0  0  0  0  0  0  0  0
    6.5010    1.4512   -4.0535 C   0  0  0  0  0  0  0  0  0  0  0  0
    3.2603   -0.2363    1.4554 H   0  0  0  0  0  0  0  0  0  0  0  0
    4.9162    0.5796    1.6570 H   0  0  0  0  0  0  0  0  0  0  0  0
    2.9338    0.8643   -0.6793 H   0  0  0  0  0  0  0  0  0  0  0  0
    5.7301    2.0849   -0.1220 H   0  0  0  0  0  0  0  0  0  0  0  0
    4.3579    2.9591   -0.8519 H   0  0  0  0  0  0  0  0  0  0  0  0
    5.3274    0.4284   -2.0338 H   0  0  0  0  0  0  0  0  0  0  0  0
    6.2839    3.9374   -1.7513 H   0  0  0  0  0  0  0  0  0  0  0  0
    7.8247    5.0038   -3.3200 H   0  0  0  0  0  0  0  0  0  0  0  0
    8.5299    3.8316   -5.3903 H   0  0  0  0  0  0  0  0  0  0  0  0
    7.6541    1.5584   -5.8727 H   0  0  0  0  0  0  0  0  0  0  0  0
    6.1117    0.4653   -4.2960 H   0  0  0  0  0  0  0  0  0  0  0  0
  1  2  2  0  0  0  0
  1 11  1  0  0  0  0
  1 12  1  0  0  0  0
  2  3  1  0  0  0  0
  2 13  1  0  0  0  0
  3  4  1  0  0  0  0
  3 14  1  0  0  0  0
  3 15  1  0  0  0  0
  4  5  1  0  0  0  0
  4 16  1  0  0  0  0
  5  6  2  0  0  0  0
  5 10  1  0  0  0  0
  6  7  1  0  0  0  0
  6 17  1  0  0  0  0
  7  8  2  0  0  0  0
  7 18  1  0  0  0  0
  8  9  1  0  0  0  0
  8 19  1  0  0  0  0
  9 10  2  0  0  0  0
  9 20  1  0  0  0  0
 10 21  1  0  0  0  0
M  END
$$$$