1076784 1076783
 OpenBabel01211413383D

 39 41  0  0  0  0  0  0  0  0999 V2000
    6.3222   -2.6795   -3.4369 C   0  0  0  0  0  0  0  0  0  0  0  0
    7.6947   -3.1874   -3.1080 C   0  0  0  0  0  0  0  0  0  0  0  0
    8.8346   -2.4609   -3.4667 C   0  0  0  0  0  0  0  0  0  0  0  0
   10.1058   -2.9266   -3.1193 C   0  0  0  0  0  0  0  0  0  0  0  0
   10.2578   -4.1222   -2.4069 C   0  0  0  0  0  0  0  0  0  0  0  0
    9.1218   -4.8675   -2.0823 C   0  0  0  0  0  0  0  0  0  0  0  0
    7.8488   -4.4030   -2.4298 C   0  0  0  0  0  0  0  0  0  0  0  0
   11.8730   -4.6843   -1.8741 S   0  0  0  0  0  0  0  0  0  0  0  0
   12.4425   -3.2357   -1.2849 N   0  0  0  0  0  0  0  0  0  0  0  0
   13.5561   -3.1260   -0.6202 C   0  0  0  0  0  0  0  0  0  0  0  0
   14.5148   -4.2359   -0.3562 C   0  0  0  0  0  0  0  0  0  0  0  0
   14.7582   -4.6588    0.9551 C   0  0  0  0  0  0  0  0  0  0  0  0
   15.7324   -5.6289    1.1991 C   0  0  0  0  0  0  0  0  0  0  0  0
   16.4369   -6.1938    0.1340 C   0  0  0  0  0  0  0  0  0  0  0  0
   16.1707   -5.7927   -1.1760 C   0  0  0  0  0  0  0  0  0  0  0  0
   15.2153   -4.8065   -1.4239 C   0  0  0  0  0  0  0  0  0  0  0  0
   13.8895   -1.7481   -0.0892 C   0  0  0  0  0  0  0  0  0  0  0  0
   12.9519   -0.7155   -0.2632 C   0  0  0  0  0  0  0  0  0  0  0  0
   13.2022    0.5705    0.2203 C   0  0  0  0  0  0  0  0  0  0  0  0
   14.3906    0.8408    0.8920 C   0  0  0  0  0  0  0  0  0  0  0  0
   15.3343   -0.1691    1.0655 C   0  0  0  0  0  0  0  0  0  0  0  0
   15.0929   -1.4538    0.5673 C   0  0  0  0  0  0  0  0  0  0  0  0
    6.3592   -1.6735   -3.8682 H   0  0  0  0  0  0  0  0  0  0  0  0
    5.7137   -2.6256   -2.5279 H   0  0  0  0  0  0  0  0  0  0  0  0
    5.8351   -3.3425   -4.1582 H   0  0  0  0  0  0  0  0  0  0  0  0
    8.7454   -1.5189   -4.0025 H   0  0  0  0  0  0  0  0  0  0  0  0
   10.9800   -2.3377   -3.3872 H   0  0  0  0  0  0  0  0  0  0  0  0
    9.2157   -5.8023   -1.5359 H   0  0  0  0  0  0  0  0  0  0  0  0
    6.9755   -4.9884   -2.1510 H   0  0  0  0  0  0  0  0  0  0  0  0
   14.2125   -4.2211    1.7872 H   0  0  0  0  0  0  0  0  0  0  0  0
   15.9467   -5.9419    2.2179 H   0  0  0  0  0  0  0  0  0  0  0  0
   17.1942   -6.9504    0.3252 H   0  0  0  0  0  0  0  0  0  0  0  0
   16.7121   -6.2440   -2.0039 H   0  0  0  0  0  0  0  0  0  0  0  0
   15.0201   -4.4848   -2.4440 H   0  0  0  0  0  0  0  0  0  0  0  0
   12.0120   -0.9037   -0.7789 H   0  0  0  0  0  0  0  0  0  0  0  0
   12.4657    1.3560    0.0723 H   0  0  0  0  0  0  0  0  0  0  0  0
   14.5827    1.8392    1.2761 H   0  0  0  0  0  0  0  0  0  0  0  0
   16.2636    0.0426    1.5885 H   0  0  0  0  0  0  0  0  0  0  0  0
   15.8650   -2.2038    0.7086 H   0  0  0  0  0  0  0  0  0  0  0  0
  1  2  1  0  0  0  0
  1 23  1  0  0  0  0
  1 24  1  0  0  0  0
  1 25  1  0  0  0  0
  2  3  2  0  0  0  0
  2  7  1  0  0  0  0
  3  4  1  0  0  0  0
  3 26  1  0  0  0  0
  4  5  2  0  0  0  0
  4 27  1  0  0  0  0
  5  6  1  0  0  0  0
  5  8  1  0  0  0  0
  6  7  2  0  0  0  0
  6 28  1  0  0  0  0
  7 29  1  0  0  0  0
  8  9  1  0  0  0  0
  9 10  2  3  0  0  0
 10 17  1  0  0  0  0
 10 11  1  0  0  0  0
 11 12  2  0  0  0  0
 11 16  1  0  0  0  0
 12 13  1  0  0  0  0
 12 30  1  0  0  0  0
 13 14  2  0  0  0  0
 13 31  1  0  0  0  0
 14 15  1  0  0  0  0
 14 32  1  0  0  0  0
 15 16  2  0  0  0  0
 15 33  1  0  0  0  0
 16 34  1  0  0  0  0
 17 18  2  0  0  0  0
 17 22  1  0  0  0  0
 18 19  1  0  0  0  0
 18 35  1  0  0  0  0
 19 20  2  0  0  0  0
 19 36  1  0  0  0  0
 20 21  1  0  0  0  0
 20 37  1  0  0  0  0
 21 22  2  0  0  0  0
 21 38  1  0  0  0  0
 22 39  1  0  0  0  0
M  END
$$$$