507262 507261
 OpenBabel01211413203D

 24 25  0  0  1  0  0  0  0  0999 V2000
    5.0035    1.5566   -4.0408 S   0  0  0  0  0  0  0  0  0  0  0  0
    4.7729    0.4602   -2.8268 C   0  0  0  0  0  0  0  0  0  0  0  0
    4.9489   -1.2756   -2.9336 S   0  0  0  0  0  0  0  0  0  0  0  0
    4.2406   -1.5490   -1.2802 C   0  0  0  0  0  0  0  0  0  0  0  0
    4.4940   -0.2331   -0.5456 C   0  0  2  0  0  0  0  0  0  0  0  0
    3.6925   -0.0530    0.1806 H   0  0  0  0  0  0  0  0  0  0  0  0
    4.4126    0.8082   -1.5537 N   0  0  0  0  0  0  0  0  0  0  0  0
    5.8562   -0.2402    0.1802 C   0  0  0  0  0  0  0  0  0  0  0  0
    6.0746    1.0037    1.0109 C   0  0  0  0  0  0  0  0  0  0  0  0
    5.5913    1.0770    2.3243 C   0  0  0  0  0  0  0  0  0  0  0  0
    5.7792    2.2341    3.0821 C   0  0  0  0  0  0  0  0  0  0  0  0
    6.4458    3.3282    2.5336 C   0  0  0  0  0  0  0  0  0  0  0  0
    6.9273    3.2665    1.2275 C   0  0  0  0  0  0  0  0  0  0  0  0
    6.7440    2.1098    0.4690 C   0  0  0  0  0  0  0  0  0  0  0  0
    3.1654   -1.7172   -1.4030 H   0  0  0  0  0  0  0  0  0  0  0  0
    4.6789   -2.4204   -0.7864 H   0  0  0  0  0  0  0  0  0  0  0  0
    4.3658    1.7905   -1.3041 H   0  0  0  0  0  0  0  0  0  0  0  0
    5.9183   -1.1147    0.8410 H   0  0  0  0  0  0  0  0  0  0  0  0
    6.6847   -0.3438   -0.5321 H   0  0  0  0  0  0  0  0  0  0  0  0
    5.0697    0.2330    2.7699 H   0  0  0  0  0  0  0  0  0  0  0  0
    5.4071    2.2823    4.1024 H   0  0  0  0  0  0  0  0  0  0  0  0
    6.5926    4.2283    3.1248 H   0  0  0  0  0  0  0  0  0  0  0  0
    7.4485    4.1192    0.7995 H   0  0  0  0  0  0  0  0  0  0  0  0
    7.1283    2.0778   -0.5489 H   0  0  0  0  0  0  0  0  0  0  0  0
  1  2  2  0  0  0  0
  2  7  1  0  0  0  0
  2  3  1  0  0  0  0
  3  4  1  0  0  0  0
  4  5  1  0  0  0  0
  4 15  1  0  0  0  0
  4 16  1  0  0  0  0
  5  7  1  0  0  0  0
  5  6  1  1  0  0  0
  5  8  1  0  0  0  0
  7 17  1  0  0  0  0
  8  9  1  0  0  0  0
  8 18  1  0  0  0  0
  8 19  1  0  0  0  0
  9 10  2  0  0  0  0
  9 14  1  0  0  0  0
 10 11  1  0  0  0  0
 10 20  1  0  0  0  0
 11 12  2  0  0  0  0
 11 21  1  0  0  0  0
 12 13  1  0  0  0  0
 12 22  1  0  0  0  0
 13 14  2  0  0  0  0
 13 23  1  0  0  0  0
 14 24  1  0  0  0  0
M  END
$$$$