725665 725664
 OpenBabel01211413333D

 19 19  0  0  0  0  0  0  0  0999 V2000
    1.6831   -0.0246   -0.5444 C   0  0  0  0  0  0  0  0  0  0  0  0
    2.6644   -0.3895    0.4226 O   0  0  0  0  0  0  0  0  0  0  0  0
    3.0787    0.6720    1.2024 C   0  0  0  0  0  0  0  0  0  0  0  0
    2.5550    1.8964    1.0068 N   0  0  0  0  0  0  0  0  0  0  0  0
    3.0225    2.8809    1.7987 C   0  0  0  0  0  0  0  0  0  0  0  0
    2.3283    4.4204    1.5000 Cl  0  0  0  0  0  0  0  0  0  0  0  0
    3.9726    2.7109    2.7823 C   0  0  0  0  0  0  0  0  0  0  0  0
    4.4797    1.4264    2.9713 C   0  0  0  0  0  0  0  0  0  0  0  0
    4.0357    0.3838    2.1595 C   0  0  0  0  0  0  0  0  0  0  0  0
    5.5020    1.2287    4.0263 C   0  0  0  0  0  0  0  0  0  0  0  0
    6.1399    2.1725    4.4741 O   0  0  0  0  0  0  0  0  0  0  0  0
    5.6857   -0.0354    4.5098 N   0  0  0  0  0  0  0  0  0  0  0  0
    1.4235   -0.9244   -1.1105 H   0  0  0  0  0  0  0  0  0  0  0  0
    2.0781    0.7120   -1.2526 H   0  0  0  0  0  0  0  0  0  0  0  0
    0.7695    0.3412   -0.0630 H   0  0  0  0  0  0  0  0  0  0  0  0
    4.3093    3.5462    3.3879 H   0  0  0  0  0  0  0  0  0  0  0  0
    4.4271   -0.6228    2.2362 H   0  0  0  0  0  0  0  0  0  0  0  0
    5.0605   -0.8065    4.3275 H   0  0  0  0  0  0  0  0  0  0  0  0
    6.3309   -0.1315    5.2844 H   0  0  0  0  0  0  0  0  0  0  0  0
  1  2  1  0  0  0  0
  1 13  1  0  0  0  0
  1 14  1  0  0  0  0
  1 15  1  0  0  0  0
  2  3  1  0  0  0  0
  3  9  1  0  0  0  0
  3  4  2  0  0  0  0
  4  5  1  0  0  0  0
  5  7  2  0  0  0  0
  5  6  1  0  0  0  0
  7  8  1  0  0  0  0
  7 16  1  0  0  0  0
  8  9  2  0  0  0  0
  8 10  1  0  0  0  0
  9 17  1  0  0  0  0
 10 12  1  0  0  0  0
 10 11  2  0  0  0  0
 12 18  1  0  0  0  0
 12 19  1  0  0  0  0
M  END
$$$$