6725347 6725346
 OpenBabel01211413573D

 24 25  0  0  0  0  0  0  0  0999 V2000
    1.3427   -0.2921   -0.4806 O   0  0  0  0  0  0  0  0  0  0  0  0
    2.4399    0.3589    0.1050 C   0  0  0  0  0  0  0  0  0  0  0  0
    3.0479    1.1237   -0.9430 N   0  0  0  0  0  0  0  0  0  0  0  0
    4.3617    1.5347   -0.9662 C   0  0  0  0  0  0  0  0  0  0  0  0
    4.9035    2.5023   -1.7126 C   0  0  0  0  0  0  0  0  0  0  0  0
    6.3427    2.8579   -1.7041 C   0  0  0  0  0  0  0  0  0  0  0  0
    7.2326    2.3759   -1.0346 O   0  0  0  0  0  0  0  0  0  0  0  0
    6.4752    3.9340   -2.6946 C   0  0  0  0  0  0  0  0  0  0  0  0
    5.2348    4.2310   -3.2579 C   0  0  0  0  0  0  0  0  0  0  0  0
    4.1915    3.3746   -2.6789 C   0  0  0  0  0  0  0  0  0  0  0  0
    3.0068    3.4020   -2.9378 O   0  0  0  0  0  0  0  0  0  0  0  0
    5.0920    5.2114   -4.2228 C   0  0  0  0  0  0  0  0  0  0  0  0
    6.2434    5.8989   -4.6189 C   0  0  0  0  0  0  0  0  0  0  0  0
    7.4974    5.5985   -4.0500 C   0  0  0  0  0  0  0  0  0  0  0  0
    7.6236    4.6048   -3.0743 C   0  0  0  0  0  0  0  0  0  0  0  0
    1.6684   -0.5063   -1.3712 H   0  0  0  0  0  0  0  0  0  0  0  0
    3.1214   -0.3964    0.5090 H   0  0  0  0  0  0  0  0  0  0  0  0
    2.0912    1.0021    0.9179 H   0  0  0  0  0  0  0  0  0  0  0  0
    2.4020    1.7610   -1.4190 H   0  0  0  0  0  0  0  0  0  0  0  0
    5.0033    0.9629   -0.2941 H   0  0  0  0  0  0  0  0  0  0  0  0
    4.1218    5.4358   -4.6558 H   0  0  0  0  0  0  0  0  0  0  0  0
    6.1722    6.6771   -5.3774 H   0  0  0  0  0  0  0  0  0  0  0  0
    8.3789    6.1482   -4.3764 H   0  0  0  0  0  0  0  0  0  0  0  0
    8.5858    4.3660   -2.6310 H   0  0  0  0  0  0  0  0  0  0  0  0
  1  2  1  0  0  0  0
  1 16  1  0  0  0  0
  2  3  1  0  0  0  0
  2 17  1  0  0  0  0
  2 18  1  0  0  0  0
  3  4  1  0  0  0  0
  3 19  1  0  0  0  0
  4  5  2  3  0  0  0
  4 20  1  0  0  0  0
  5  6  1  0  0  0  0
  5 10  1  0  0  0  0
  6  8  1  0  0  0  0
  6  7  2  0  0  0  0
  8 15  1  0  0  0  0
  8  9  2  0  0  0  0
  9 10  1  0  0  0  0
  9 12  1  0  0  0  0
 10 11  2  0  0  0  0
 12 13  2  0  0  0  0
 12 21  1  0  0  0  0
 13 14  1  0  0  0  0
 13 22  1  0  0  0  0
 14 15  2  0  0  0  0
 14 23  1  0  0  0  0
 15 24  1  0  0  0  0
M  END
$$$$