27373 27372
 OpenBabel01211413143D

 16 16  0  0  0  0  0  0  0  0999 V2000
    2.9601   -1.1989    0.3249 C   0  0  0  0  0  0  0  0  0  0  0  0
    2.4342   -0.0059    0.0174 C   0  0  0  0  0  0  0  0  0  0  0  0
    3.0682    0.9847   -0.8617 C   0  0  0  0  0  0  0  0  0  0  0  0
    2.8530    2.3457   -0.6091 C   0  0  0  0  0  0  0  0  0  0  0  0
    3.4160    3.3221   -1.4362 C   0  0  0  0  0  0  0  0  0  0  0  0
    4.1929    2.9488   -2.5349 C   0  0  0  0  0  0  0  0  0  0  0  0
    4.4002    1.5933   -2.8058 C   0  0  0  0  0  0  0  0  0  0  0  0
    3.8352    0.6182   -1.9752 C   0  0  0  0  0  0  0  0  0  0  0  0
    5.3387    1.0531   -4.1546 Cl  0  0  0  0  0  0  0  0  0  0  0  0
    4.8583    4.2059   -3.5148 Cl  0  0  0  0  0  0  0  0  0  0  0  0
    2.4333   -1.8743    0.9917 H   0  0  0  0  0  0  0  0  0  0  0  0
    3.9207   -1.5321   -0.0534 H   0  0  0  0  0  0  0  0  0  0  0  0
    1.4784    0.2779    0.4555 H   0  0  0  0  0  0  0  0  0  0  0  0
    2.2517    2.6607    0.2418 H   0  0  0  0  0  0  0  0  0  0  0  0
    3.2427    4.3731   -1.2165 H   0  0  0  0  0  0  0  0  0  0  0  0
    3.9894   -0.4325   -2.2101 H   0  0  0  0  0  0  0  0  0  0  0  0
  1  2  2  0  0  0  0
  1 11  1  0  0  0  0
  1 12  1  0  0  0  0
  2  3  1  0  0  0  0
  2 13  1  0  0  0  0
  3  4  2  0  0  0  0
  3  8  1  0  0  0  0
  4  5  1  0  0  0  0
  4 14  1  0  0  0  0
  5  6  2  0  0  0  0
  5 15  1  0  0  0  0
  6  7  1  0  0  0  0
  6 10  1  0  0  0  0
  7  8  2  0  0  0  0
  7  9  1  0  0  0  0
  8 16  1  0  0  0  0
M  END
$$$$