518951 518950
 OpenBabel01211413223D

 33 34  0  0  0  0  0  0  0  0999 V2000
    1.7187    1.2855    1.1358 C   0  0  0  0  0  0  0  0  0  0  0  0
    0.5692   -0.0041    1.8807 Si  0  0  0  0  0  0  0  0  0  0  0  0
    1.3987   -1.3970    2.2835 O   0  0  0  0  0  0  0  0  0  0  0  0
    2.0885   -1.6294    3.4561 C   0  0  0  0  0  0  0  0  0  0  0  0
    2.7289   -0.7091    4.2043 C   0  0  0  0  0  0  0  0  0  0  0  0
    3.4689   -1.0564    5.4622 C   0  0  0  0  0  0  0  0  0  0  0  0
    4.0148   -2.4845    5.4609 C   0  0  0  0  0  0  0  0  0  0  0  0
    3.0434   -3.4728    4.8687 C   0  0  0  0  0  0  0  0  0  0  0  0
    2.1370   -3.0551    3.8729 C   0  0  0  0  0  0  0  0  0  0  0  0
    1.2906   -4.0136    3.2931 C   0  0  0  0  0  0  0  0  0  0  0  0
    1.3433   -5.3526    3.6881 C   0  0  0  0  0  0  0  0  0  0  0  0
    2.2481   -5.7560    4.6657 C   0  0  0  0  0  0  0  0  0  0  0  0
    3.1007   -4.8218    5.2505 C   0  0  0  0  0  0  0  0  0  0  0  0
   -0.3350    0.7533    3.3452 C   0  0  0  0  0  0  0  0  0  0  0  0
   -0.7359   -0.4189    0.5757 C   0  0  0  0  0  0  0  0  0  0  0  0
    1.1551    2.1749    0.8397 H   0  0  0  0  0  0  0  0  0  0  0  0
    2.2175    0.8847    0.2490 H   0  0  0  0  0  0  0  0  0  0  0  0
    2.4858    1.5901    1.8523 H   0  0  0  0  0  0  0  0  0  0  0  0
    2.7347    0.3395    3.9315 H   0  0  0  0  0  0  0  0  0  0  0  0
    4.3033   -0.3590    5.6036 H   0  0  0  0  0  0  0  0  0  0  0  0
    2.7880   -0.9119    6.3108 H   0  0  0  0  0  0  0  0  0  0  0  0
    4.9393   -2.5244    4.8702 H   0  0  0  0  0  0  0  0  0  0  0  0
    4.2717   -2.7663    6.4892 H   0  0  0  0  0  0  0  0  0  0  0  0
    0.5784   -3.7250    2.5237 H   0  0  0  0  0  0  0  0  0  0  0  0
    0.6803   -6.0791    3.2263 H   0  0  0  0  0  0  0  0  0  0  0  0
    2.2947   -6.7990    4.9667 H   0  0  0  0  0  0  0  0  0  0  0  0
    3.8148   -5.1500    6.0017 H   0  0  0  0  0  0  0  0  0  0  0  0
   -1.0017    1.5540    3.0092 H   0  0  0  0  0  0  0  0  0  0  0  0
    0.3666    1.1809    4.0676 H   0  0  0  0  0  0  0  0  0  0  0  0
   -0.9391   -0.0027    3.8571 H   0  0  0  0  0  0  0  0  0  0  0  0
   -1.3026    0.4760    0.3041 H   0  0  0  0  0  0  0  0  0  0  0  0
   -1.4325   -1.1684    0.9617 H   0  0  0  0  0  0  0  0  0  0  0  0
   -0.2605   -0.8172   -0.3249 H   0  0  0  0  0  0  0  0  0  0  0  0
  1  2  1  0  0  0  0
  1 16  1  0  0  0  0
  1 17  1  0  0  0  0
  1 18  1  0  0  0  0
  2 15  1  0  0  0  0
  2 14  1  0  0  0  0
  2  3  1  0  0  0  0
  3  4  1  0  0  0  0
  4  5  2  0  0  0  0
  4  9  1  0  0  0  0
  5  6  1  0  0  0  0
  5 19  1  0  0  0  0
  6  7  1  0  0  0  0
  6 20  1  0  0  0  0
  6 21  1  0  0  0  0
  7  8  1  0  0  0  0
  7 22  1  0  0  0  0
  7 23  1  0  0  0  0
  8 13  1  0  0  0  0
  8  9  2  0  0  0  0
  9 10  1  0  0  0  0
 10 11  2  0  0  0  0
 10 24  1  0  0  0  0
 11 12  1  0  0  0  0
 11 25  1  0  0  0  0
 12 13  2  0  0  0  0
 12 26  1  0  0  0  0
 13 27  1  0  0  0  0
 14 28  1  0  0  0  0
 14 29  1  0  0  0  0
 14 30  1  0  0  0  0
 15 31  1  0  0  0  0
 15 32  1  0  0  0  0
 15 33  1  0  0  0  0
M  END
$$$$