37625 37624
 OpenBabel01211413153D

 36 37  0  0  0  0  0  0  0  0999 V2000
    1.4649    0.3494    0.9760 C   0  0  0  0  0  0  0  0  0  0  0  0
    2.2893    0.2942   -0.2295 N   0  0  0  0  0  0  0  0  0  0  0  0
    2.8934   -0.9236   -0.5814 C   0  0  0  0  0  0  0  0  0  0  0  0
    3.6228   -1.0509   -1.7777 C   0  0  0  0  0  0  0  0  0  0  0  0
    4.2370   -2.2539   -2.1541 C   0  0  0  0  0  0  0  0  0  0  0  0
    4.1293   -3.3786   -1.3414 C   0  0  0  0  0  0  0  0  0  0  0  0
    3.3890   -3.2938   -0.1653 C   0  0  0  0  0  0  0  0  0  0  0  0
    2.7776   -2.0864    0.2009 C   0  0  0  0  0  0  0  0  0  0  0  0
    4.7877   -4.6347   -1.7097 C   0  0  0  0  0  0  0  0  0  0  0  0
    4.2588   -5.5902   -2.5000 C   0  0  0  0  0  0  0  0  0  0  0  0
    5.0359   -6.8296   -2.7842 C   0  0  0  0  0  0  0  0  0  0  0  0
    6.4258   -6.7969   -2.9563 C   0  0  0  0  0  0  0  0  0  0  0  0
    7.1025   -7.9764   -3.2304 C   0  0  0  0  0  0  0  0  0  0  0  0
    6.5009   -9.1756   -3.3567 N   0  0  0  0  0  0  0  0  0  0  0  0
    5.1616   -9.1923   -3.2034 C   0  0  0  0  0  0  0  0  0  0  0  0
    4.3993   -8.0671   -2.9230 C   0  0  0  0  0  0  0  0  0  0  0  0
    2.8816   -5.4993   -3.1119 C   0  0  0  0  0  0  0  0  0  0  0  0
    3.0768    1.5025   -0.4906 C   0  0  0  0  0  0  0  0  0  0  0  0
    0.9523    1.3157    1.0466 H   0  0  0  0  0  0  0  0  0  0  0  0
    2.0728    0.2262    1.8791 H   0  0  0  0  0  0  0  0  0  0  0  0
    0.6767   -0.4114    0.9550 H   0  0  0  0  0  0  0  0  0  0  0  0
    3.7095   -0.2125   -2.4627 H   0  0  0  0  0  0  0  0  0  0  0  0
    4.7907   -2.2989   -3.0885 H   0  0  0  0  0  0  0  0  0  0  0  0
    3.2815   -4.1611    0.4812 H   0  0  0  0  0  0  0  0  0  0  0  0
    2.2203   -2.0814    1.1319 H   0  0  0  0  0  0  0  0  0  0  0  0
    5.7669   -4.7510   -1.2507 H   0  0  0  0  0  0  0  0  0  0  0  0
    6.9880   -5.8714   -2.8950 H   0  0  0  0  0  0  0  0  0  0  0  0
    8.1805   -7.9825   -3.3641 H   0  0  0  0  0  0  0  0  0  0  0  0
    4.6960  -10.1677   -3.3143 H   0  0  0  0  0  0  0  0  0  0  0  0
    3.3275   -8.1767   -2.8065 H   0  0  0  0  0  0  0  0  0  0  0  0
    2.4772   -4.4826   -3.1039 H   0  0  0  0  0  0  0  0  0  0  0  0
    2.1755   -6.1347   -2.5671 H   0  0  0  0  0  0  0  0  0  0  0  0
    2.9010   -5.8157   -4.1609 H   0  0  0  0  0  0  0  0  0  0  0  0
    2.5683    2.3918   -0.1012 H   0  0  0  0  0  0  0  0  0  0  0  0
    3.2089    1.6775   -1.5626 H   0  0  0  0  0  0  0  0  0  0  0  0
    4.0582    1.4448   -0.0064 H   0  0  0  0  0  0  0  0  0  0  0  0
  1  2  1  0  0  0  0
  1 19  1  0  0  0  0
  1 20  1  0  0  0  0
  1 21  1  0  0  0  0
  2 18  1  0  0  0  0
  2  3  1  0  0  0  0
  3  4  2  0  0  0  0
  3  8  1  0  0  0  0
  4  5  1  0  0  0  0
  4 22  1  0  0  0  0
  5  6  2  0  0  0  0
  5 23  1  0  0  0  0
  6  7  1  0  0  0  0
  6  9  1  0  0  0  0
  7  8  2  0  0  0  0
  7 24  1  0  0  0  0
  8 25  1  0  0  0  0
  9 10  2  0  0  0  0
  9 26  1  0  0  0  0
 10 17  1  0  0  0  0
 10 11  1  0  0  0  0
 11 12  2  0  0  0  0
 11 16  1  0  0  0  0
 12 13  1  0  0  0  0
 12 27  1  0  0  0  0
 13 14  2  0  0  0  0
 13 28  1  0  0  0  0
 14 15  1  0  0  0  0
 15 16  2  0  0  0  0
 15 29  1  0  0  0  0
 16 30  1  0  0  0  0
 17 31  1  0  0  0  0
 17 32  1  0  0  0  0
 17 33  1  0  0  0  0
 18 34  1  0  0  0  0
 18 35  1  0  0  0  0
 18 36  1  0  0  0  0
M  END
$$$$