629031 629030
 OpenBabel01211413293D

 39 39  0  0  0  0  0  0  0  0999 V2000
    8.8514    0.1247   -0.2161 C   0  0  0  0  0  0  0  0  0  0  0  0
    7.8477    0.1518    0.7910 O   0  0  0  0  0  0  0  0  0  0  0  0
    7.0695    1.2752    0.8454 C   0  0  0  0  0  0  0  0  0  0  0  0
    6.3088    1.4066    2.0116 C   0  0  0  0  0  0  0  0  0  0  0  0
    5.4748    2.5123    2.1997 C   0  0  0  0  0  0  0  0  0  0  0  0
    5.3951    3.4891    1.2067 C   0  0  0  0  0  0  0  0  0  0  0  0
    6.1402    3.3575    0.0318 C   0  0  0  0  0  0  0  0  0  0  0  0
    6.9752    2.2502   -0.1488 C   0  0  0  0  0  0  0  0  0  0  0  0
    4.5267    4.6631    1.4203 C   0  0  0  0  0  0  0  0  0  0  0  0
    4.4515    5.6133    0.5431 N   0  0  0  0  0  0  0  0  0  0  0  0
    3.6345    6.6490    0.9041 N   0  0  0  0  0  0  0  0  0  0  0  0
    4.1741    7.5927    1.9215 C   0  0  0  0  0  0  0  0  0  0  0  0
    5.5388    8.1908    1.5594 C   0  0  0  0  0  0  0  0  0  0  0  0
    3.2104    8.7012    2.3565 C   0  0  0  0  0  0  0  0  0  0  0  0
    2.8607    7.2528   -0.2068 C   0  0  0  0  0  0  0  0  0  0  0  0
    3.7221    7.8781   -1.3072 C   0  0  0  0  0  0  0  0  0  0  0  0
    1.9444    6.1816   -0.8223 C   0  0  0  0  0  0  0  0  0  0  0  0
    9.5237    0.9862   -0.1277 H   0  0  0  0  0  0  0  0  0  0  0  0
    8.4081    0.0700   -1.2165 H   0  0  0  0  0  0  0  0  0  0  0  0
    9.4492   -0.7807   -0.0690 H   0  0  0  0  0  0  0  0  0  0  0  0
    6.3755    0.6431    2.7838 H   0  0  0  0  0  0  0  0  0  0  0  0
    4.9024    2.5985    3.1191 H   0  0  0  0  0  0  0  0  0  0  0  0
    6.0747    4.1138   -0.7471 H   0  0  0  0  0  0  0  0  0  0  0  0
    7.5304    2.1778   -1.0786 H   0  0  0  0  0  0  0  0  0  0  0  0
    3.9504    4.6907    2.3631 H   0  0  0  0  0  0  0  0  0  0  0  0
    4.3403    6.9911    2.8251 H   0  0  0  0  0  0  0  0  0  0  0  0
    5.4695    8.9460    0.7732 H   0  0  0  0  0  0  0  0  0  0  0  0
    6.2484    7.4210    1.2367 H   0  0  0  0  0  0  0  0  0  0  0  0
    5.9781    8.6795    2.4376 H   0  0  0  0  0  0  0  0  0  0  0  0
    3.0790    9.4617    1.5792 H   0  0  0  0  0  0  0  0  0  0  0  0
    3.5971    9.2120    3.2462 H   0  0  0  0  0  0  0  0  0  0  0  0
    2.2288    8.2910    2.6180 H   0  0  0  0  0  0  0  0  0  0  0  0
    2.1796    8.0199    0.1753 H   0  0  0  0  0  0  0  0  0  0  0  0
    4.4537    7.1677   -1.7059 H   0  0  0  0  0  0  0  0  0  0  0  0
    4.2559    8.7605   -0.9502 H   0  0  0  0  0  0  0  0  0  0  0  0
    3.0950    8.2072   -2.1436 H   0  0  0  0  0  0  0  0  0  0  0  0
    2.5147    5.3856   -1.3127 H   0  0  0  0  0  0  0  0  0  0  0  0
    1.2862    6.6288   -1.5752 H   0  0  0  0  0  0  0  0  0  0  0  0
    1.3061    5.7263   -0.0577 H   0  0  0  0  0  0  0  0  0  0  0  0
  1  2  1  0  0  0  0
  1 18  1  0  0  0  0
  1 19  1  0  0  0  0
  1 20  1  0  0  0  0
  2  3  1  0  0  0  0
  3  4  2  0  0  0  0
  3  8  1  0  0  0  0
  4  5  1  0  0  0  0
  4 21  1  0  0  0  0
  5  6  2  0  0  0  0
  5 22  1  0  0  0  0
  6  7  1  0  0  0  0
  6  9  1  0  0  0  0
  7  8  2  0  0  0  0
  7 23  1  0  0  0  0
  8 24  1  0  0  0  0
  9 10  2  0  0  0  0
  9 25  1  0  0  0  0
 10 11  1  0  0  0  0
 11 15  1  0  0  0  0
 11 12  1  0  0  0  0
 12 14  1  0  0  0  0
 12 13  1  0  0  0  0
 12 26  1  0  0  0  0
 13 27  1  0  0  0  0
 13 28  1  0  0  0  0
 13 29  1  0  0  0  0
 14 30  1  0  0  0  0
 14 31  1  0  0  0  0
 14 32  1  0  0  0  0
 15 17  1  0  0  0  0
 15 16  1  0  0  0  0
 15 33  1  0  0  0  0
 16 34  1  0  0  0  0
 16 35  1  0  0  0  0
 16 36  1  0  0  0  0
 17 37  1  0  0  0  0
 17 38  1  0  0  0  0
 17 39  1  0  0  0  0
M  END
$$$$