501623 501622
 OpenBabel01211413203D

 43 45  0  0  0  0  0  0  0  0999 V2000
    0.9057    0.3988    0.1165 C   0  0  0  0  0  0  0  0  0  0  0  0
    2.3526    0.3156   -0.1592 N   0  0  0  0  0  0  0  0  0  0  0  0
    2.7042    0.8758   -1.4089 C   0  0  0  0  0  0  0  0  0  0  0  0
    2.1584    2.0623   -1.9200 C   0  0  0  0  0  0  0  0  0  0  0  0
    2.5414    2.5496   -3.1770 C   0  0  0  0  0  0  0  0  0  0  0  0
    3.4941    1.8712   -3.9297 C   0  0  0  0  0  0  0  0  0  0  0  0
    4.0539    0.6968   -3.4363 C   0  0  0  0  0  0  0  0  0  0  0  0
    3.6497    0.2005   -2.1931 C   0  0  0  0  0  0  0  0  0  0  0  0
    3.1537    0.8906    0.9690 C   0  0  0  0  0  0  0  0  0  0  0  0
    4.9528    0.6516    0.7351 P   0  0  3  0  0  0  0  0  0  0  0  0
    5.1577    2.1112    1.2277 O   0  0  0  0  0  0  0  0  0  0  0  0
    4.9884   -0.5610    2.2113 C   0  0  0  0  0  0  0  0  0  0  0  0
    4.7864   -1.9289    1.9945 C   0  0  0  0  0  0  0  0  0  0  0  0
    4.8074   -2.8051    3.0786 C   0  0  0  0  0  0  0  0  0  0  0  0
    5.0249   -2.3175    4.3723 C   0  0  0  0  0  0  0  0  0  0  0  0
    5.2198   -0.9522    4.5858 C   0  0  0  0  0  0  0  0  0  0  0  0
    5.2008   -0.0701    3.5099 C   0  0  0  0  0  0  0  0  0  0  0  0
    6.7147    0.4176    0.5060 C   0  0  0  0  0  0  0  0  0  0  0  0
    7.1422   -0.4356   -0.5263 C   0  0  0  0  0  0  0  0  0  0  0  0
    8.5005   -0.6794   -0.7459 C   0  0  0  0  0  0  0  0  0  0  0  0
    9.4583   -0.0705    0.0608 C   0  0  0  0  0  0  0  0  0  0  0  0
    9.0598    0.7832    1.0846 C   0  0  0  0  0  0  0  0  0  0  0  0
    7.7020    1.0244    1.3033 C   0  0  0  0  0  0  0  0  0  0  0  0
    0.6601   -0.2286    0.9765 H   0  0  0  0  0  0  0  0  0  0  0  0
    0.3162    0.0374   -0.7311 H   0  0  0  0  0  0  0  0  0  0  0  0
    0.5907    1.4230    0.3599 H   0  0  0  0  0  0  0  0  0  0  0  0
    1.4254    2.6318   -1.3570 H   0  0  0  0  0  0  0  0  0  0  0  0
    2.0947    3.4631   -3.5624 H   0  0  0  0  0  0  0  0  0  0  0  0
    3.7938    2.2524   -4.9029 H   0  0  0  0  0  0  0  0  0  0  0  0
    4.7936    0.1596   -4.0222 H   0  0  0  0  0  0  0  0  0  0  0  0
    4.0592   -0.7422   -1.8448 H   0  0  0  0  0  0  0  0  0  0  0  0
    2.7996    0.4389    1.9025 H   0  0  0  0  0  0  0  0  0  0  0  0
    2.9057    1.9587    1.0504 H   0  0  0  0  0  0  0  0  0  0  0  0
    4.6145   -2.3094    0.9912 H   0  0  0  0  0  0  0  0  0  0  0  0
    4.6569   -3.8698    2.9218 H   0  0  0  0  0  0  0  0  0  0  0  0
    5.0443   -3.0053    5.2119 H   0  0  0  0  0  0  0  0  0  0  0  0
    5.3912   -0.5797    5.5929 H   0  0  0  0  0  0  0  0  0  0  0  0
    5.3546    0.9941    3.6733 H   0  0  0  0  0  0  0  0  0  0  0  0
    6.4133   -0.9254   -1.1658 H   0  0  0  0  0  0  0  0  0  0  0  0
    8.8116   -1.3456   -1.5460 H   0  0  0  0  0  0  0  0  0  0  0  0
   10.5151   -0.2593   -0.1088 H   0  0  0  0  0  0  0  0  0  0  0  0
    9.8020    1.2653    1.7149 H   0  0  0  0  0  0  0  0  0  0  0  0
    7.4095    1.6999    2.1048 H   0  0  0  0  0  0  0  0  0  0  0  0
  1  2  1  0  0  0  0
  1 24  1  0  0  0  0
  1 25  1  0  0  0  0
  1 26  1  0  0  0  0
  2  9  1  0  0  0  0
  2  3  1  0  0  0  0
  3  4  2  0  0  0  0
  3  8  1  0  0  0  0
  4  5  1  0  0  0  0
  4 27  1  0  0  0  0
  5  6  2  0  0  0  0
  5 28  1  0  0  0  0
  6  7  1  0  0  0  0
  6 29  1  0  0  0  0
  7  8  2  0  0  0  0
  7 30  1  0  0  0  0
  8 31  1  0  0  0  0
  9 10  1  0  0  0  0
  9 32  1  0  0  0  0
  9 33  1  0  0  0  0
 10 18  1  0  0  0  0
 10 12  1  0  0  0  0
 10 11  2  0  0  0  0
 12 13  2  0  0  0  0
 12 17  1  0  0  0  0
 13 14  1  0  0  0  0
 13 34  1  0  0  0  0
 14 15  2  0  0  0  0
 14 35  1  0  0  0  0
 15 16  1  0  0  0  0
 15 36  1  0  0  0  0
 16 17  2  0  0  0  0
 16 37  1  0  0  0  0
 17 38  1  0  0  0  0
 18 19  2  0  0  0  0
 18 23  1  0  0  0  0
 19 20  1  0  0  0  0
 19 39  1  0  0  0  0
 20 21  2  0  0  0  0
 20 40  1  0  0  0  0
 21 22  1  0  0  0  0
 21 41  1  0  0  0  0
 22 23  2  0  0  0  0
 22 42  1  0  0  0  0
 23 43  1  0  0  0  0
M  END
$$$$