948177 948176
 OpenBabel01211413363D

 36 37  0  0  0  0  0  0  0  0999 V2000
    3.1670   -0.8015   -0.0509 C   0  0  0  0  0  0  0  0  0  0  0  0
    2.5620    0.1569   -0.9092 O   0  0  0  0  0  0  0  0  0  0  0  0
    3.4006    1.0439   -1.5361 C   0  0  0  0  0  0  0  0  0  0  0  0
    2.7856    2.2762   -1.8134 C   0  0  0  0  0  0  0  0  0  0  0  0
    3.4642    3.3171   -2.4677 C   0  0  0  0  0  0  0  0  0  0  0  0
    4.8005    3.0909   -2.8228 C   0  0  0  0  0  0  0  0  0  0  0  0
    5.4186    1.8602   -2.5700 C   0  0  0  0  0  0  0  0  0  0  0  0
    4.7298    0.8262   -1.9256 C   0  0  0  0  0  0  0  0  0  0  0  0
    5.2792   -0.4110   -1.7178 O   0  0  0  0  0  0  0  0  0  0  0  0
    6.6966   -0.4694   -1.6087 C   0  0  0  0  0  0  0  0  0  0  0  0
    2.7911    4.6665   -2.7276 C   0  0  0  0  0  0  0  0  0  0  0  0
    3.2291    5.3206   -4.0600 C   0  0  0  0  0  0  0  0  0  0  0  0
    2.1458    6.3450   -4.3881 C   0  0  0  0  0  0  0  0  0  0  0  0
    0.8797    5.8512   -3.7007 C   0  0  0  0  0  0  0  0  0  0  0  0
    1.2683    4.5640   -2.9794 C   0  0  0  0  0  0  0  0  0  0  0  0
    3.1320    5.6158   -1.5679 C   0  0  0  0  0  0  0  0  0  0  0  0
    4.1451    6.2919   -1.4596 O   0  0  0  0  0  0  0  0  0  0  0  0
    2.2221    5.6233   -0.5726 O   0  0  0  0  0  0  0  0  0  0  0  0
    2.3997   -1.1481    0.6486 H   0  0  0  0  0  0  0  0  0  0  0  0
    3.9797   -0.3717    0.5449 H   0  0  0  0  0  0  0  0  0  0  0  0
    3.5018   -1.6727   -0.6214 H   0  0  0  0  0  0  0  0  0  0  0  0
    1.7553    2.4085   -1.4881 H   0  0  0  0  0  0  0  0  0  0  0  0
    5.3874    3.8688   -3.3077 H   0  0  0  0  0  0  0  0  0  0  0  0
    6.4416    1.7339   -2.9100 H   0  0  0  0  0  0  0  0  0  0  0  0
    7.0785    0.2886   -0.9162 H   0  0  0  0  0  0  0  0  0  0  0  0
    7.1680   -0.3806   -2.5923 H   0  0  0  0  0  0  0  0  0  0  0  0
    6.9580   -1.4516   -1.2032 H   0  0  0  0  0  0  0  0  0  0  0  0
    3.2661    4.5723   -4.8633 H   0  0  0  0  0  0  0  0  0  0  0  0
    4.2128    5.8005   -4.0165 H   0  0  0  0  0  0  0  0  0  0  0  0
    2.4206    7.3317   -3.9977 H   0  0  0  0  0  0  0  0  0  0  0  0
    2.0100    6.4481   -5.4694 H   0  0  0  0  0  0  0  0  0  0  0  0
    0.5248    6.6015   -2.9850 H   0  0  0  0  0  0  0  0  0  0  0  0
    0.0704    5.6744   -4.4166 H   0  0  0  0  0  0  0  0  0  0  0  0
    0.6693    4.4292   -2.0728 H   0  0  0  0  0  0  0  0  0  0  0  0
    1.0465    3.7134   -3.6387 H   0  0  0  0  0  0  0  0  0  0  0  0
    2.6144    6.2202    0.0993 H   0  0  0  0  0  0  0  0  0  0  0  0
  1  2  1  0  0  0  0
  1 19  1  0  0  0  0
  1 20  1  0  0  0  0
  1 21  1  0  0  0  0
  2  3  1  0  0  0  0
  3  4  2  0  0  0  0
  3  8  1  0  0  0  0
  4  5  1  0  0  0  0
  4 22  1  0  0  0  0
  5  6  2  0  0  0  0
  5 11  1  0  0  0  0
  6  7  1  0  0  0  0
  6 23  1  0  0  0  0
  7  8  2  0  0  0  0
  7 24  1  0  0  0  0
  8  9  1  0  0  0  0
  9 10  1  0  0  0  0
 10 25  1  0  0  0  0
 10 26  1  0  0  0  0
 10 27  1  0  0  0  0
 11 15  1  0  0  0  0
 11 12  1  0  0  0  0
 11 16  1  0  0  0  0
 12 13  1  0  0  0  0
 12 28  1  0  0  0  0
 12 29  1  0  0  0  0
 13 14  1  0  0  0  0
 13 30  1  0  0  0  0
 13 31  1  0  0  0  0
 14 15  1  0  0  0  0
 14 32  1  0  0  0  0
 14 33  1  0  0  0  0
 15 34  1  0  0  0  0
 15 35  1  0  0  0  0
 16 18  1  0  0  0  0
 16 17  2  0  0  0  0
 18 36  1  0  0  0  0
M  END
$$$$