67216 67215
 OpenBabel01211413153D

 21 21  0  0  0  0  0  0  0  0999 V2000
    3.0540   -1.1315    0.9395 C   0  0  0  0  0  0  0  0  0  0  0  0
    4.4760   -0.6445    0.7333 C   0  0  0  0  0  0  0  0  0  0  0  0
    4.7423    0.4730    1.5948 O   0  0  0  0  0  0  0  0  0  0  0  0
    4.4047    1.6924    1.0948 C   0  0  0  0  0  0  0  0  0  0  0  0
    3.9130    1.9149    0.0002 O   0  0  0  0  0  0  0  0  0  0  0  0
    4.7205    2.7392    2.1094 C   0  0  0  0  0  0  0  0  0  0  0  0
    4.4597    4.0181    1.8218 C   0  0  0  0  0  0  0  0  0  0  0  0
    4.7700    5.0404    2.8360 C   0  0  0  0  0  0  0  0  0  0  0  0
    4.5489    6.2256    2.6221 O   0  0  0  0  0  0  0  0  0  0  0  0
    5.3084    4.5869    4.0068 N   0  0  0  0  0  0  0  0  0  0  0  0
    5.5264    5.2713    4.7146 H   0  0  0  0  0  0  0  0  0  0  0  0
    5.5740    3.2801    4.2987 C   0  0  0  0  0  0  0  0  0  0  0  0
    6.0573    2.9312    5.3695 O   0  0  0  0  0  0  0  0  0  0  0  0
    5.2648    2.3849    3.3184 N   0  0  0  0  0  0  0  0  0  0  0  0
    5.4498    1.4046    3.5074 H   0  0  0  0  0  0  0  0  0  0  0  0
    2.8523   -2.0129    0.3243 H   0  0  0  0  0  0  0  0  0  0  0  0
    2.3303   -0.3517    0.6819 H   0  0  0  0  0  0  0  0  0  0  0  0
    2.8848   -1.3879    1.9905 H   0  0  0  0  0  0  0  0  0  0  0  0
    4.6663   -0.3939   -0.3167 H   0  0  0  0  0  0  0  0  0  0  0  0
    5.1806   -1.4361    1.0083 H   0  0  0  0  0  0  0  0  0  0  0  0
    4.0299    4.3554    0.8866 H   0  0  0  0  0  0  0  0  0  0  0  0
  1  2  1  0  0  0  0
  1 16  1  0  0  0  0
  1 17  1  0  0  0  0
  1 18  1  0  0  0  0
  2  3  1  0  0  0  0
  2 19  1  0  0  0  0
  2 20  1  0  0  0  0
  3  4  1  0  0  0  0
  4  6  1  0  0  0  0
  4  5  2  0  0  0  0
  6 14  1  0  0  0  0
  6  7  2  0  0  0  0
  7  8  1  0  0  0  0
  7 21  1  0  0  0  0
  8 10  1  0  0  0  0
  8  9  2  0  0  0  0
 10 12  1  0  0  0  0
 10 11  1  0  0  0  0
 12 14  1  0  0  0  0
 12 13  2  0  0  0  0
 14 15  1  0  0  0  0
M  END
$$$$