26286989 26286988
 OpenBabel01211414043D

 35 37  0  0  1  0  0  0  0  0999 V2000
    2.0941    0.8085   -0.4468 O   0  0  0  0  0  0  0  0  0  0  0  0
    3.1832    0.5335   -0.9303 C   0  0  0  0  0  0  0  0  0  0  0  0
    3.7725   -0.8280   -0.8858 C   0  0  3  0  0  0  0  0  0  0  0  0
    3.9576   -1.4715    0.4580 C   0  0  0  0  0  0  0  0  0  0  0  0
    3.1825   -1.7313   -1.8467 O   0  0  0  0  0  0  0  0  0  0  0  0
    4.5512   -1.3842   -2.0656 C   0  0  0  0  0  0  0  0  0  0  0  0
    4.0291    1.6106   -1.5360 C   0  0  0  0  0  0  0  0  0  0  0  0
    5.3296    1.5903   -1.5344 N   0  0  0  0  0  0  0  0  0  0  0  0
    5.7092    2.7112   -2.1972 N   0  0  0  0  0  0  0  0  0  0  0  0
    4.6243    3.6922   -2.2881 C   0  0  0  0  0  0  0  0  0  0  0  0
    3.3767    2.8189   -2.1432 C   0  0  3  0  0  0  0  0  0  0  0  0
    2.7152    2.4636   -3.4478 C   0  0  0  0  0  0  0  0  0  0  0  0
    1.3813    2.3898   -3.5870 C   0  0  0  0  0  0  0  0  0  0  0  0
    0.6920    2.0547   -4.8397 C   0  0  0  0  0  0  0  0  0  0  0  0
    1.1307    2.5270   -6.0833 C   0  0  0  0  0  0  0  0  0  0  0  0
    0.4165    2.2318   -7.2477 C   0  0  0  0  0  0  0  0  0  0  0  0
   -0.7474    1.4689   -7.1791 C   0  0  0  0  0  0  0  0  0  0  0  0
   -1.1996    1.0025   -5.9468 C   0  0  0  0  0  0  0  0  0  0  0  0
   -0.4861    1.2984   -4.7826 C   0  0  0  0  0  0  0  0  0  0  0  0
    4.3810   -2.4782    0.3777 H   0  0  0  0  0  0  0  0  0  0  0  0
    2.9958   -1.5538    0.9754 H   0  0  0  0  0  0  0  0  0  0  0  0
    4.6299   -0.8693    1.0769 H   0  0  0  0  0  0  0  0  0  0  0  0
    5.3035   -2.1420   -1.8805 H   0  0  0  0  0  0  0  0  0  0  0  0
    4.7775   -0.7488   -2.9134 H   0  0  0  0  0  0  0  0  0  0  0  0
    6.5830    3.1096   -1.8475 H   0  0  0  0  0  0  0  0  0  0  0  0
    4.6647    4.2595   -3.2229 H   0  0  0  0  0  0  0  0  0  0  0  0
    4.6928    4.3933   -1.4483 H   0  0  0  0  0  0  0  0  0  0  0  0
    2.6750    3.2671   -1.4316 H   0  0  0  0  0  0  0  0  0  0  0  0
    3.3708    2.2481   -4.2900 H   0  0  0  0  0  0  0  0  0  0  0  0
    0.7329    2.5593   -2.7285 H   0  0  0  0  0  0  0  0  0  0  0  0
    2.0236    3.1421   -6.1587 H   0  0  0  0  0  0  0  0  0  0  0  0
    0.7660    2.6044   -8.2070 H   0  0  0  0  0  0  0  0  0  0  0  0
   -1.3043    1.2421   -8.0844 H   0  0  0  0  0  0  0  0  0  0  0  0
   -2.1091    0.4103   -5.8890 H   0  0  0  0  0  0  0  0  0  0  0  0
   -0.8557    0.9265   -3.8291 H   0  0  0  0  0  0  0  0  0  0  0  0
  1  2  2  0  0  0  0
  2  7  1  0  0  0  0
  2  3  1  0  0  0  0
  3  6  1  0  0  0  0
  3  5  1  0  0  0  0
  3  4  1  0  0  0  0
  4 20  1  0  0  0  0
  4 21  1  0  0  0  0
  4 22  1  0  0  0  0
  5  6  1  0  0  0  0
  6 23  1  0  0  0  0
  6 24  1  0  0  0  0
  7  8  2  0  0  0  0
  7 11  1  0  0  0  0
  8  9  1  0  0  0  0
  9 10  1  0  0  0  0
  9 25  1  0  0  0  0
 10 11  1  0  0  0  0
 10 26  1  0  0  0  0
 10 27  1  0  0  0  0
 11 12  1  0  0  0  0
 11 28  1  0  0  0  0
 12 13  2  0  0  0  0
 12 29  1  0  0  0  0
 13 14  1  0  0  0  0
 13 30  1  0  0  0  0
 14 15  2  0  0  0  0
 14 19  1  0  0  0  0
 15 16  1  0  0  0  0
 15 31  1  0  0  0  0
 16 17  2  0  0  0  0
 16 32  1  0  0  0  0
 17 18  1  0  0  0  0
 17 33  1  0  0  0  0
 18 19  2  0  0  0  0
 18 34  1  0  0  0  0
 19 35  1  0  0  0  0
M  END
$$$$