513358 513357
 OpenBabel01211413223D

 21 22  0  0  0  0  0  0  0  0999 V2000
    0.9682    0.0130   -0.0080 O   0  0  0  0  0  0  0  0  0  0  0  0
    2.1922    0.0333   -0.0071 C   0  0  0  0  0  0  0  0  0  0  0  0
    2.9566   -1.2282   -0.0053 C   0  0  0  0  0  0  0  0  0  0  0  0
    4.2949   -1.2622   -0.0048 C   0  0  0  0  0  0  0  0  0  0  0  0
    5.0789   -2.5378   -0.0028 C   0  0  0  0  0  0  0  0  0  0  0  0
    5.0827    0.0002   -0.0062 C   0  0  0  0  0  0  0  0  0  0  0  0
    6.3078   -0.0175   -0.0065 O   0  0  0  0  0  0  0  0  0  0  0  0
    4.3445    1.2799   -0.0070 C   0  0  0  0  0  0  0  0  0  0  0  0
    2.9511    1.2963   -0.0074 C   0  0  0  0  0  0  0  0  0  0  0  0
    2.2631    2.5167   -0.0080 C   0  0  0  0  0  0  0  0  0  0  0  0
    2.9739    3.7179   -0.0082 C   0  0  0  0  0  0  0  0  0  0  0  0
    4.3684    3.7035   -0.0078 C   0  0  0  0  0  0  0  0  0  0  0  0
    5.0552    2.4877   -0.0073 C   0  0  0  0  0  0  0  0  0  0  0  0
    2.3574   -2.1327   -0.0044 H   0  0  0  0  0  0  0  0  0  0  0  0
    4.4261   -3.4173   -0.0011 H   0  0  0  0  0  0  0  0  0  0  0  0
    5.7150   -2.5962    0.8865 H   0  0  0  0  0  0  0  0  0  0  0  0
    5.7147   -2.5993   -0.8921 H   0  0  0  0  0  0  0  0  0  0  0  0
    1.1744    2.5345   -0.0082 H   0  0  0  0  0  0  0  0  0  0  0  0
    2.4391    4.6652   -0.0085 H   0  0  0  0  0  0  0  0  0  0  0  0
    4.9227    4.6396   -0.0080 H   0  0  0  0  0  0  0  0  0  0  0  0
    6.1440    2.4854   -0.0070 H   0  0  0  0  0  0  0  0  0  0  0  0
  1  2  2  0  0  0  0
  2  3  1  0  0  0  0
  2  9  1  0  0  0  0
  3  4  2  0  0  0  0
  3 14  1  0  0  0  0
  4  6  1  0  0  0  0
  4  5  1  0  0  0  0
  5 15  1  0  0  0  0
  5 16  1  0  0  0  0
  5 17  1  0  0  0  0
  6  8  1  0  0  0  0
  6  7  2  0  0  0  0
  8 13  1  0  0  0  0
  8  9  2  0  0  0  0
  9 10  1  0  0  0  0
 10 11  2  0  0  0  0
 10 18  1  0  0  0  0
 11 12  1  0  0  0  0
 11 19  1  0  0  0  0
 12 13  2  0  0  0  0
 12 20  1  0  0  0  0
 13 21  1  0  0  0  0
M  END
$$$$