502923 502922
 OpenBabel01211413203D

 23 23  0  0  0  0  0  0  0  0999 V2000
    1.4107   -0.4673    0.2719 C   0  0  0  0  0  0  0  0  0  0  0  0
    2.7855   -0.2181    0.5593 O   0  0  0  0  0  0  0  0  0  0  0  0
    3.2867    0.9015   -0.0207 C   0  0  0  0  0  0  0  0  0  0  0  0
    2.6681    1.6725   -0.7427 O   0  0  0  0  0  0  0  0  0  0  0  0
    4.7229    1.0867    0.3488 C   0  0  0  0  0  0  0  0  0  0  0  0
    5.3987    2.2060   -0.1310 C   0  0  0  0  0  0  0  0  0  0  0  0
    6.7315    2.3848    0.2291 C   0  0  0  0  0  0  0  0  0  0  0  0
    7.3450    1.4463    1.0541 C   0  0  0  0  0  0  0  0  0  0  0  0
    6.6014    0.3511    1.4852 C   0  0  0  0  0  0  0  0  0  0  0  0
    5.3020    0.1543    1.1468 N   0  0  0  0  0  0  0  0  0  0  0  0
    7.2578   -0.6596    2.3691 C   0  0  0  0  0  0  0  0  0  0  0  0
    8.3625   -0.5027    2.8679 O   0  0  0  0  0  0  0  0  0  0  0  0
    6.4623   -1.7492    2.5111 O   0  0  0  0  0  0  0  0  0  0  0  0
    6.9842   -2.7981    3.3275 C   0  0  0  0  0  0  0  0  0  0  0  0
    1.1161   -1.3819    0.7937 H   0  0  0  0  0  0  0  0  0  0  0  0
    1.2651   -0.6185   -0.8021 H   0  0  0  0  0  0  0  0  0  0  0  0
    0.7874    0.3552    0.6363 H   0  0  0  0  0  0  0  0  0  0  0  0
    4.8973    2.9272   -0.7702 H   0  0  0  0  0  0  0  0  0  0  0  0
    7.2863    3.2492   -0.1280 H   0  0  0  0  0  0  0  0  0  0  0  0
    8.3830    1.5658    1.3514 H   0  0  0  0  0  0  0  0  0  0  0  0
    6.5737   -3.7439    2.9629 H   0  0  0  0  0  0  0  0  0  0  0  0
    6.6525   -2.6476    4.3582 H   0  0  0  0  0  0  0  0  0  0  0  0
    8.0755   -2.8638    3.2847 H   0  0  0  0  0  0  0  0  0  0  0  0
  1  2  1  0  0  0  0
  1 15  1  0  0  0  0
  1 16  1  0  0  0  0
  1 17  1  0  0  0  0
  2  3  1  0  0  0  0
  3  5  1  0  0  0  0
  3  4  2  0  0  0  0
  5 10  1  0  0  0  0
  5  6  2  0  0  0  0
  6  7  1  0  0  0  0
  6 18  1  0  0  0  0
  7  8  2  0  0  0  0
  7 19  1  0  0  0  0
  8  9  1  0  0  0  0
  8 20  1  0  0  0  0
  9 10  2  0  0  0  0
  9 11  1  0  0  0  0
 11 13  1  0  0  0  0
 11 12  2  0  0  0  0
 13 14  1  0  0  0  0
 14 21  1  0  0  0  0
 14 22  1  0  0  0  0
 14 23  1  0  0  0  0
M  END
$$$$