27481311 27481310
 OpenBabel01211414063D

 45 47  0  0  0  0  0  0  0  0999 V2000
    0.5321    0.3405   -2.9601 C   0  0  0  0  0  0  0  0  0  0  0  0
    2.2101    0.9102   -3.3244 S   0  0  3  0  0  0  0  0  0  0  0  0
    2.1953    2.4099   -3.2484 O   0  0  0  0  0  0  0  0  0  0  0  0
    2.9470    0.2851   -1.7812 C   0  0  0  0  0  0  0  0  0  0  0  0
    4.4306    0.5249   -1.7535 C   0  0  0  0  0  0  0  0  0  0  0  0
    4.9404    1.7372   -1.3292 C   0  0  0  0  0  0  0  0  0  0  0  0
    6.3122    1.8918   -1.3419 C   0  0  0  0  0  0  0  0  0  0  0  0
    6.8442    3.0937   -0.8505 N   0  0  0  0  0  0  0  0  0  0  0  0
    8.3021    3.2589   -0.9142 C   0  0  0  0  0  0  0  0  0  0  0  0
    8.7590    3.7024   -2.3133 C   0  0  0  0  0  0  0  0  0  0  0  0
    8.3862    5.1481   -2.6434 C   0  0  0  0  0  0  0  0  0  0  0  0
    8.8619    6.1155   -1.5654 C   0  0  0  0  0  0  0  0  0  0  0  0
    8.3495    5.7146   -0.1872 C   0  0  0  0  0  0  0  0  0  0  0  0
    8.7307    4.2759    0.1569 C   0  0  0  0  0  0  0  0  0  0  0  0
    7.1203    0.8982   -1.7373 N   0  0  0  0  0  0  0  0  0  0  0  0
    6.5524   -0.2491   -2.1517 C   0  0  0  0  0  0  0  0  0  0  0  0
    5.2262   -0.4801   -2.1721 N   0  0  0  0  0  0  0  0  0  0  0  0
    7.4455   -1.3228   -2.6254 C   0  0  0  0  0  0  0  0  0  0  0  0
    6.9430   -2.5519   -3.0787 C   0  0  0  0  0  0  0  0  0  0  0  0
    7.8223   -3.5275   -3.5222 C   0  0  0  0  0  0  0  0  0  0  0  0
    9.1610   -3.3746   -3.5487 N   0  0  0  0  0  0  0  0  0  0  0  0
    9.6398   -2.1927   -3.1119 C   0  0  0  0  0  0  0  0  0  0  0  0
    8.8391   -1.1596   -2.6507 C   0  0  0  0  0  0  0  0  0  0  0  0
    0.5288   -0.7453   -2.8407 H   0  0  0  0  0  0  0  0  0  0  0  0
   -0.1166    0.6135   -3.7958 H   0  0  0  0  0  0  0  0  0  0  0  0
    0.1689    0.8200   -2.0479 H   0  0  0  0  0  0  0  0  0  0  0  0
    2.7476   -0.7900   -1.7183 H   0  0  0  0  0  0  0  0  0  0  0  0
    2.4598    0.7706   -0.9289 H   0  0  0  0  0  0  0  0  0  0  0  0
    4.2885    2.5371   -0.9987 H   0  0  0  0  0  0  0  0  0  0  0  0
    6.3378    3.8848   -1.2377 H   0  0  0  0  0  0  0  0  0  0  0  0
    8.7970    2.3134   -0.6568 H   0  0  0  0  0  0  0  0  0  0  0  0
    8.3511    3.0419   -3.0870 H   0  0  0  0  0  0  0  0  0  0  0  0
    9.8513    3.6067   -2.3677 H   0  0  0  0  0  0  0  0  0  0  0  0
    8.8296    5.4279   -3.6060 H   0  0  0  0  0  0  0  0  0  0  0  0
    7.2998    5.2360   -2.7618 H   0  0  0  0  0  0  0  0  0  0  0  0
    9.9587    6.1389   -1.5544 H   0  0  0  0  0  0  0  0  0  0  0  0
    8.5242    7.1303   -1.8041 H   0  0  0  0  0  0  0  0  0  0  0  0
    8.7633    6.3920    0.5687 H   0  0  0  0  0  0  0  0  0  0  0  0
    7.2597    5.8304   -0.1514 H   0  0  0  0  0  0  0  0  0  0  0  0
    9.8211    4.2232    0.2736 H   0  0  0  0  0  0  0  0  0  0  0  0
    8.2975    4.0088    1.1286 H   0  0  0  0  0  0  0  0  0  0  0  0
    5.8758   -2.7514   -3.0903 H   0  0  0  0  0  0  0  0  0  0  0  0
    7.4581   -4.4865   -3.8796 H   0  0  0  0  0  0  0  0  0  0  0  0
   10.7207   -2.0897   -3.1429 H   0  0  0  0  0  0  0  0  0  0  0  0
    9.3007   -0.2351   -2.3163 H   0  0  0  0  0  0  0  0  0  0  0  0
  1  2  1  0  0  0  0
  1 24  1  0  0  0  0
  1 25  1  0  0  0  0
  1 26  1  0  0  0  0
  2  4  1  0  0  0  0
  2  3  2  0  0  0  0
  4  5  1  0  0  0  0
  4 27  1  0  0  0  0
  4 28  1  0  0  0  0
  5 17  1  0  0  0  0
  5  6  2  0  0  0  0
  6  7  1  0  0  0  0
  6 29  1  0  0  0  0
  7 15  2  0  0  0  0
  7  8  1  0  0  0  0
  8  9  1  0  0  0  0
  8 30  1  0  0  0  0
  9 14  1  0  0  0  0
  9 10  1  0  0  0  0
  9 31  1  0  0  0  0
 10 11  1  0  0  0  0
 10 32  1  0  0  0  0
 10 33  1  0  0  0  0
 11 12  1  0  0  0  0
 11 34  1  0  0  0  0
 11 35  1  0  0  0  0
 12 13  1  0  0  0  0
 12 36  1  0  0  0  0
 12 37  1  0  0  0  0
 13 14  1  0  0  0  0
 13 38  1  0  0  0  0
 13 39  1  0  0  0  0
 14 40  1  0  0  0  0
 14 41  1  0  0  0  0
 15 16  1  0  0  0  0
 16 17  2  0  0  0  0
 16 18  1  0  0  0  0
 18 19  2  0  0  0  0
 18 23  1  0  0  0  0
 19 20  1  0  0  0  0
 19 42  1  0  0  0  0
 20 21  2  0  0  0  0
 20 43  1  0  0  0  0
 21 22  1  0  0  0  0
 22 23  2  0  0  0  0
 22 44  1  0  0  0  0
 23 45  1  0  0  0  0
M  END
$$$$