4745780 4745779
 OpenBabel01211413533D

 48 50  0  0  0  0  0  0  0  0999 V2000
    0.6883   -0.1360   -1.5248 C   0  0  0  0  0  0  0  0  0  0  0  0
    2.1885   -0.0437   -1.2872 C   0  0  0  0  0  0  0  0  0  0  0  0
    2.7685   -1.3745   -1.3879 N   0  0  0  0  0  0  0  0  0  0  0  0
    4.1458   -1.5940   -1.2117 C   0  0  0  0  0  0  0  0  0  0  0  0
    5.0901   -0.5973   -1.5138 C   0  0  0  0  0  0  0  0  0  0  0  0
    6.4696   -0.8311   -1.4613 C   0  0  0  0  0  0  0  0  0  0  0  0
    7.4418    0.1341   -1.8126 N   0  0  0  0  0  0  0  0  0  0  0  0
    7.1441    1.5527   -1.6372 C   0  0  0  0  0  0  0  0  0  0  0  0
    8.2966    2.4161   -2.1867 C   0  0  0  0  0  0  0  0  0  0  0  0
    7.8974    3.8936   -2.1538 C   0  0  0  0  0  0  0  0  0  0  0  0
    9.6017    2.2191   -1.4121 C   0  0  0  0  0  0  0  0  0  0  0  0
    6.9261   -2.1486   -1.2092 C   0  0  0  0  0  0  0  0  0  0  0  0
    6.0023   -3.1759   -0.9317 C   0  0  0  0  0  0  0  0  0  0  0  0
    4.6285   -2.8943   -0.9184 C   0  0  0  0  0  0  0  0  0  0  0  0
    3.6717   -3.9907   -0.6049 C   0  0  0  0  0  0  0  0  0  0  0  0
    2.5192   -3.7562   -0.2539 O   0  0  0  0  0  0  0  0  0  0  0  0
    4.1203   -5.3864   -0.7219 C   0  0  0  0  0  0  0  0  0  0  0  0
    3.1789   -6.4217   -0.7673 C   0  0  0  0  0  0  0  0  0  0  0  0
    3.6035   -7.7430   -0.9135 C   0  0  0  0  0  0  0  0  0  0  0  0
    4.9652   -8.0327   -0.9980 C   0  0  0  0  0  0  0  0  0  0  0  0
    5.9035   -7.0011   -0.9347 C   0  0  0  0  0  0  0  0  0  0  0  0
    5.4767   -5.6732   -0.8026 C   0  0  0  0  0  0  0  0  0  0  0  0
    6.4642   -4.5804   -0.7723 C   0  0  0  0  0  0  0  0  0  0  0  0
    7.6565   -4.8572   -0.6796 O   0  0  0  0  0  0  0  0  0  0  0  0
    8.3370   -2.3544   -1.1876 N   0  0  0  0  0  0  0  0  0  0  0  0
    0.2303    0.8562   -1.4708 H   0  0  0  0  0  0  0  0  0  0  0  0
    0.2086   -0.7774   -0.7779 H   0  0  0  0  0  0  0  0  0  0  0  0
    0.4755   -0.5585   -2.5131 H   0  0  0  0  0  0  0  0  0  0  0  0
    2.3780    0.3806   -0.2949 H   0  0  0  0  0  0  0  0  0  0  0  0
    2.6090    0.6269   -2.0435 H   0  0  0  0  0  0  0  0  0  0  0  0
    2.2256   -2.0827   -0.8712 H   0  0  0  0  0  0  0  0  0  0  0  0
    4.7386    0.3802   -1.8187 H   0  0  0  0  0  0  0  0  0  0  0  0
    8.3024   -0.1416   -1.3308 H   0  0  0  0  0  0  0  0  0  0  0  0
    6.9725    1.7728   -0.5765 H   0  0  0  0  0  0  0  0  0  0  0  0
    6.2392    1.8208   -2.1933 H   0  0  0  0  0  0  0  0  0  0  0  0
    8.4785    2.1377   -3.2331 H   0  0  0  0  0  0  0  0  0  0  0  0
    7.7200    4.2336   -1.1277 H   0  0  0  0  0  0  0  0  0  0  0  0
    6.9823    4.0642   -2.7309 H   0  0  0  0  0  0  0  0  0  0  0  0
    8.6846    4.5195   -2.5873 H   0  0  0  0  0  0  0  0  0  0  0  0
    9.4623    2.4095   -0.3429 H   0  0  0  0  0  0  0  0  0  0  0  0
   10.3765    2.9009   -1.7795 H   0  0  0  0  0  0  0  0  0  0  0  0
    9.9868    1.2016   -1.5308 H   0  0  0  0  0  0  0  0  0  0  0  0
    2.1148   -6.2005   -0.7048 H   0  0  0  0  0  0  0  0  0  0  0  0
    2.8714   -8.5458   -0.9651 H   0  0  0  0  0  0  0  0  0  0  0  0
    5.2968   -9.0619   -1.1163 H   0  0  0  0  0  0  0  0  0  0  0  0
    6.9648   -7.2350   -1.0026 H   0  0  0  0  0  0  0  0  0  0  0  0
    8.7499   -1.9951   -2.0471 H   0  0  0  0  0  0  0  0  0  0  0  0
    8.5620   -3.3504   -1.0640 H   0  0  0  0  0  0  0  0  0  0  0  0
  1  2  1  0  0  0  0
  1 26  1  0  0  0  0
  1 27  1  0  0  0  0
  1 28  1  0  0  0  0
  2  3  1  0  0  0  0
  2 29  1  0  0  0  0
  2 30  1  0  0  0  0
  3  4  1  0  0  0  0
  3 31  1  0  0  0  0
  4  5  2  0  0  0  0
  4 14  1  0  0  0  0
  5  6  1  0  0  0  0
  5 32  1  0  0  0  0
  6 12  2  0  0  0  0
  6  7  1  0  0  0  0
  7  8  1  0  0  0  0
  7 33  1  0  0  0  0
  8  9  1  0  0  0  0
  8 34  1  0  0  0  0
  8 35  1  0  0  0  0
  9 11  1  0  0  0  0
  9 10  1  0  0  0  0
  9 36  1  0  0  0  0
 10 37  1  0  0  0  0
 10 38  1  0  0  0  0
 10 39  1  0  0  0  0
 11 40  1  0  0  0  0
 11 41  1  0  0  0  0
 11 42  1  0  0  0  0
 12 13  1  0  0  0  0
 12 25  1  0  0  0  0
 13 23  1  0  0  0  0
 13 14  2  0  0  0  0
 14 15  1  0  0  0  0
 15 17  1  0  0  0  0
 15 16  2  0  0  0  0
 17 22  1  0  0  0  0
 17 18  2  0  0  0  0
 18 19  1  0  0  0  0
 18 43  1  0  0  0  0
 19 20  2  0  0  0  0
 19 44  1  0  0  0  0
 20 21  1  0  0  0  0
 20 45  1  0  0  0  0
 21 22  2  0  0  0  0
 21 46  1  0  0  0  0
 22 23  1  0  0  0  0
 23 24  2  0  0  0  0
 25 47  1  0  0  0  0
 25 48  1  0  0  0  0
M  END
$$$$