621649 621648
 OpenBabel01211413293D

 31 31  0  0  0  0  0  0  0  0999 V2000
    3.7234    0.0464   -1.4820 O   0  0  0  0  0  0  0  0  0  0  0  0
    3.0083    0.1033   -0.4843 C   0  0  0  0  0  0  0  0  0  0  0  0
    1.5032    0.4235   -0.5506 C   0  0  0  0  0  0  0  0  0  0  0  0
    1.2017    1.6898    0.2650 C   0  0  0  0  0  0  0  0  0  0  0  0
    1.0986    0.6708   -2.0149 C   0  0  0  0  0  0  0  0  0  0  0  0
    0.6901   -0.7605   -0.0071 C   0  0  0  0  0  0  0  0  0  0  0  0
    3.5098   -0.1172    0.7778 N   0  0  0  0  0  0  0  0  0  0  0  0
    4.9029   -0.4400    0.9710 C   0  0  0  0  0  0  0  0  0  0  0  0
    5.2288   -0.5702    2.4352 C   0  0  0  0  0  0  0  0  0  0  0  0
    5.5793    0.5625    3.1876 C   0  0  0  0  0  0  0  0  0  0  0  0
    5.8637    0.4445    4.5488 C   0  0  0  0  0  0  0  0  0  0  0  0
    5.7894   -0.8017    5.1592 C   0  0  0  0  0  0  0  0  0  0  0  0
    5.4313   -1.9328    4.4354 C   0  0  0  0  0  0  0  0  0  0  0  0
    5.1463   -1.8177    3.0740 C   0  0  0  0  0  0  0  0  0  0  0  0
    6.0630   -0.9140    6.4656 F   0  0  0  0  0  0  0  0  0  0  0  0
    1.3870    1.5410    1.3341 H   0  0  0  0  0  0  0  0  0  0  0  0
    0.1545    1.9924    0.1538 H   0  0  0  0  0  0  0  0  0  0  0  0
    1.8313    2.5256   -0.0611 H   0  0  0  0  0  0  0  0  0  0  0  0
    1.2810   -0.2163   -2.6320 H   0  0  0  0  0  0  0  0  0  0  0  0
    1.6718    1.4969   -2.4510 H   0  0  0  0  0  0  0  0  0  0  0  0
    0.0355    0.9220   -2.0977 H   0  0  0  0  0  0  0  0  0  0  0  0
    0.9434   -1.6861   -0.5364 H   0  0  0  0  0  0  0  0  0  0  0  0
   -0.3857   -0.5883   -0.1245 H   0  0  0  0  0  0  0  0  0  0  0  0
    0.8796   -0.9330    1.0576 H   0  0  0  0  0  0  0  0  0  0  0  0
    2.8971   -0.1229    1.5814 H   0  0  0  0  0  0  0  0  0  0  0  0
    5.5166    0.3414    0.5065 H   0  0  0  0  0  0  0  0  0  0  0  0
    5.1222   -1.3734    0.4388 H   0  0  0  0  0  0  0  0  0  0  0  0
    5.6357    1.5404    2.7134 H   0  0  0  0  0  0  0  0  0  0  0  0
    6.1429    1.3139    5.1355 H   0  0  0  0  0  0  0  0  0  0  0  0
    5.3777   -2.8948    4.9348 H   0  0  0  0  0  0  0  0  0  0  0  0
    4.8643   -2.7057    2.5117 H   0  0  0  0  0  0  0  0  0  0  0  0
  1  2  2  0  0  0  0
  2  7  1  0  0  0  0
  2  3  1  0  0  0  0
  3  6  1  0  0  0  0
  3  5  1  0  0  0  0
  3  4  1  0  0  0  0
  4 16  1  0  0  0  0
  4 17  1  0  0  0  0
  4 18  1  0  0  0  0
  5 19  1  0  0  0  0
  5 20  1  0  0  0  0
  5 21  1  0  0  0  0
  6 22  1  0  0  0  0
  6 23  1  0  0  0  0
  6 24  1  0  0  0  0
  7  8  1  0  0  0  0
  7 25  1  0  0  0  0
  8  9  1  0  0  0  0
  8 26  1  0  0  0  0
  8 27  1  0  0  0  0
  9 10  2  0  0  0  0
  9 14  1  0  0  0  0
 10 11  1  0  0  0  0
 10 28  1  0  0  0  0
 11 12  2  0  0  0  0
 11 29  1  0  0  0  0
 12 13  1  0  0  0  0
 12 15  1  0  0  0  0
 13 14  2  0  0  0  0
 13 30  1  0  0  0  0
 14 31  1  0  0  0  0
M  END
$$$$