1097115 1097114
 OpenBabel01211413393D

 29 31  0  0  1  0  0  0  0  0999 V2000
    1.2347    0.2648    1.6582 C   0  0  0  0  0  0  0  0  0  0  0  0
    2.0566    0.0194    0.3765 C   0  0  3  0  0  0  0  0  0  0  0  0
    1.1908   -0.7262   -0.6700 C   0  0  0  0  0  0  0  0  0  0  0  0
    1.6996   -2.1268   -1.0456 C   0  0  0  0  0  0  0  0  0  0  0  0
    2.3611   -2.8723    0.1173 C   0  0  0  0  0  0  0  0  0  0  0  0
    3.4864   -2.0550    0.6666 C   0  0  0  0  0  0  0  0  0  0  0  0
    3.3687   -0.7232    0.7344 C   0  0  0  0  0  0  0  0  0  0  0  0
    4.3889    0.1969    0.9072 N   0  0  0  0  0  0  0  0  0  0  0  0
    3.9952    1.3939    0.2820 C   0  0  0  0  0  0  0  0  0  0  0  0
    2.6287    1.3573   -0.0696 C   0  0  0  0  0  0  0  0  0  0  0  0
    2.0086    2.4528   -0.6453 C   0  0  0  0  0  0  0  0  0  0  0  0
    2.7751    3.6042   -0.8517 C   0  0  0  0  0  0  0  0  0  0  0  0
    4.1297    3.6471   -0.4755 C   0  0  0  0  0  0  0  0  0  0  0  0
    4.7483    2.5358    0.1050 C   0  0  0  0  0  0  0  0  0  0  0  0
    1.8100    0.8070    2.4218 H   0  0  0  0  0  0  0  0  0  0  0  0
    0.9037   -0.6790    2.1060 H   0  0  0  0  0  0  0  0  0  0  0  0
    0.3424    0.8663    1.4455 H   0  0  0  0  0  0  0  0  0  0  0  0
    0.1716   -0.8494   -0.2754 H   0  0  0  0  0  0  0  0  0  0  0  0
    1.0739   -0.1406   -1.5865 H   0  0  0  0  0  0  0  0  0  0  0  0
    0.8704   -2.7233   -1.4453 H   0  0  0  0  0  0  0  0  0  0  0  0
    2.4255   -2.0244   -1.8632 H   0  0  0  0  0  0  0  0  0  0  0  0
    1.6388   -3.1046    0.9083 H   0  0  0  0  0  0  0  0  0  0  0  0
    2.7558   -3.8246   -0.2555 H   0  0  0  0  0  0  0  0  0  0  0  0
    4.4292   -2.5460    0.8852 H   0  0  0  0  0  0  0  0  0  0  0  0
    5.3378   -0.1170    0.7488 H   0  0  0  0  0  0  0  0  0  0  0  0
    0.9570    2.4339   -0.9057 H   0  0  0  0  0  0  0  0  0  0  0  0
    2.3136    4.4859   -1.2896 H   0  0  0  0  0  0  0  0  0  0  0  0
    4.6982    4.5616   -0.6240 H   0  0  0  0  0  0  0  0  0  0  0  0
    5.7855    2.5783    0.4160 H   0  0  0  0  0  0  0  0  0  0  0  0
  1  2  1  0  0  0  0
  1 15  1  0  0  0  0
  1 16  1  0  0  0  0
  1 17  1  0  0  0  0
  2 10  1  0  0  0  0
  2  7  1  0  0  0  0
  2  3  1  0  0  0  0
  3  4  1  0  0  0  0
  3 18  1  0  0  0  0
  3 19  1  0  0  0  0
  4  5  1  0  0  0  0
  4 20  1  0  0  0  0
  4 21  1  0  0  0  0
  5  6  1  0  0  0  0
  5 22  1  0  0  0  0
  5 23  1  0  0  0  0
  6  7  2  0  0  0  0
  6 24  1  0  0  0  0
  7  8  1  0  0  0  0
  8  9  1  0  0  0  0
  8 25  1  0  0  0  0
  9 10  2  0  0  0  0
  9 14  1  0  0  0  0
 10 11  1  0  0  0  0
 11 12  2  0  0  0  0
 11 26  1  0  0  0  0
 12 13  1  0  0  0  0
 12 27  1  0  0  0  0
 13 14  2  0  0  0  0
 13 28  1  0  0  0  0
 14 29  1  0  0  0  0
M  END
$$$$