6151360 6151359
 OpenBabel01211413563D

 35 36  0  0  1  0  0  0  0  0999 V2000
    2.9601   -0.3660   -5.8207 C   0  0  0  0  0  0  0  0  0  0  0  0
    4.2273   -0.6704   -5.0762 C   0  0  0  0  0  0  0  0  0  0  0  0
    4.2284   -0.7897   -3.6795 C   0  0  0  0  0  0  0  0  0  0  0  0
    5.4184   -1.0453   -2.9922 C   0  0  0  0  0  0  0  0  0  0  0  0
    6.6169   -1.1723   -3.6987 C   0  0  0  0  0  0  0  0  0  0  0  0
    6.6282   -1.0457   -5.0894 C   0  0  0  0  0  0  0  0  0  0  0  0
    5.4366   -0.7914   -5.7728 C   0  0  0  0  0  0  0  0  0  0  0  0
    7.8927   -1.4274   -2.9986 C   0  0  0  0  0  0  0  0  0  0  0  0
    7.9524   -1.5691   -1.7175 N   0  0  0  0  0  0  0  0  0  0  0  0
    9.3167   -1.7975   -1.1916 C   0  0  0  0  0  0  0  0  0  0  0  0
    9.7245   -3.2886   -1.1547 C   0  0  3  0  0  0  0  0  0  0  0  0
    8.9247   -4.1643   -0.2051 C   0  0  0  0  0  0  0  0  0  0  0  0
    9.5735   -4.8441    0.8376 C   0  0  0  0  0  0  0  0  0  0  0  0
    8.8583   -5.6752    1.7052 C   0  0  0  0  0  0  0  0  0  0  0  0
    7.4851   -5.8400    1.5388 C   0  0  0  0  0  0  0  0  0  0  0  0
    6.8274   -5.1756    0.5075 C   0  0  0  0  0  0  0  0  0  0  0  0
    7.5423   -4.3465   -0.3585 C   0  0  0  0  0  0  0  0  0  0  0  0
    9.7172   -3.8331   -2.4811 O   0  0  0  0  0  0  0  0  0  0  0  0
    2.0769   -0.5776   -5.2090 H   0  0  0  0  0  0  0  0  0  0  0  0
    2.8887   -0.9835   -6.7224 H   0  0  0  0  0  0  0  0  0  0  0  0
    2.9385    0.6899   -6.1080 H   0  0  0  0  0  0  0  0  0  0  0  0
    3.3039   -0.6821   -3.1166 H   0  0  0  0  0  0  0  0  0  0  0  0
    5.4068   -1.1360   -1.9079 H   0  0  0  0  0  0  0  0  0  0  0  0
    7.5537   -1.1385   -5.6509 H   0  0  0  0  0  0  0  0  0  0  0  0
    5.4558   -0.6855   -6.8561 H   0  0  0  0  0  0  0  0  0  0  0  0
    8.7948   -1.4931   -3.6341 H   0  0  0  0  0  0  0  0  0  0  0  0
    9.3581   -1.3785   -0.1796 H   0  0  0  0  0  0  0  0  0  0  0  0
   10.0479   -1.2388   -1.7914 H   0  0  0  0  0  0  0  0  0  0  0  0
   10.7749   -3.3126   -0.8378 H   0  0  0  0  0  0  0  0  0  0  0  0
   10.6467   -4.7362    0.9854 H   0  0  0  0  0  0  0  0  0  0  0  0
    9.3726   -6.1935    2.5097 H   0  0  0  0  0  0  0  0  0  0  0  0
    6.9275   -6.4853    2.2120 H   0  0  0  0  0  0  0  0  0  0  0  0
    5.7558   -5.2984    0.3748 H   0  0  0  0  0  0  0  0  0  0  0  0
    7.0052   -3.8383   -1.1561 H   0  0  0  0  0  0  0  0  0  0  0  0
    9.0604   -4.5499   -2.4889 H   0  0  0  0  0  0  0  0  0  0  0  0
  1  2  1  0  0  0  0
  1 19  1  0  0  0  0
  1 20  1  0  0  0  0
  1 21  1  0  0  0  0
  2  3  2  0  0  0  0
  2  7  1  0  0  0  0
  3  4  1  0  0  0  0
  3 22  1  0  0  0  0
  4  5  2  0  0  0  0
  4 23  1  0  0  0  0
  5  6  1  0  0  0  0
  5  8  1  0  0  0  0
  6  7  2  0  0  0  0
  6 24  1  0  0  0  0
  7 25  1  0  0  0  0
  8  9  2  0  0  0  0
  8 26  1  0  0  0  0
  9 10  1  0  0  0  0
 10 11  1  0  0  0  0
 10 27  1  0  0  0  0
 10 28  1  0  0  0  0
 11 18  1  0  0  0  0
 11 12  1  0  0  0  0
 11 29  1  0  0  0  0
 12 13  2  0  0  0  0
 12 17  1  0  0  0  0
 13 14  1  0  0  0  0
 13 30  1  0  0  0  0
 14 15  2  0  0  0  0
 14 31  1  0  0  0  0
 15 16  1  0  0  0  0
 15 32  1  0  0  0  0
 16 17  2  0  0  0  0
 16 33  1  0  0  0  0
 17 34  1  0  0  0  0
 18 35  1  0  0  0  0
M  END
$$$$