1935130 1935129
 OpenBabel01211413453D

 32 31  0  0  0  0  0  0  0  0999 V2000
    8.5333   -2.2910   -4.9541 C   0  0  0  0  0  0  0  0  0  0  0  0
    7.1337   -2.3596   -4.3605 C   0  0  0  0  0  0  0  0  0  0  0  0
    7.0073   -1.5901   -3.0426 C   0  0  0  0  0  0  0  0  0  0  0  0
    7.0155   -0.0899   -3.1829 C   0  0  0  0  0  0  0  0  0  0  0  0
    6.3753    0.7049   -2.3081 C   0  0  0  0  0  0  0  0  0  0  0  0
    6.3366    2.2051   -2.2802 C   0  0  0  0  0  0  0  0  0  0  0  0
    6.0279    2.9878   -3.5289 C   0  0  0  0  0  0  0  0  0  0  0  0
    5.4134    2.7095   -4.6902 C   0  0  0  0  0  0  0  0  0  0  0  0
    4.8197    1.4658   -5.1080 C   0  0  0  0  0  0  0  0  0  0  0  0
    4.3615    1.2631   -6.3528 C   0  0  0  0  0  0  0  0  0  0  0  0
    3.8705   -0.0813   -6.7034 C   0  0  0  0  0  0  0  0  0  0  0  0
    3.3283   -0.3449   -7.8471 N   0  0  0  0  0  0  0  0  0  0  0  0
    3.0055   -1.6923   -7.9058 N   0  0  0  0  0  0  0  0  0  0  0  0
    1.8460   -1.8250   -8.3307 N   0  0  0  0  0  0  0  0  0  0  0  0
    1.4614   -3.1665   -8.3332 O   0  0  0  0  0  0  0  0  0  0  0  0
    8.6112   -2.9635   -5.8141 H   0  0  0  0  0  0  0  0  0  0  0  0
    9.2864   -2.5965   -4.2207 H   0  0  0  0  0  0  0  0  0  0  0  0
    8.7751   -1.2803   -5.2950 H   0  0  0  0  0  0  0  0  0  0  0  0
    6.8983   -3.4132   -4.1663 H   0  0  0  0  0  0  0  0  0  0  0  0
    6.4010   -2.0000   -5.0922 H   0  0  0  0  0  0  0  0  0  0  0  0
    7.8228   -1.8855   -2.3713 H   0  0  0  0  0  0  0  0  0  0  0  0
    6.0693   -1.9014   -2.5646 H   0  0  0  0  0  0  0  0  0  0  0  0
    7.5613    0.3508   -4.0141 H   0  0  0  0  0  0  0  0  0  0  0  0
    5.8831    0.2343   -1.4570 H   0  0  0  0  0  0  0  0  0  0  0  0
    7.3077    2.5458   -1.8978 H   0  0  0  0  0  0  0  0  0  0  0  0
    5.6015    2.5108   -1.5238 H   0  0  0  0  0  0  0  0  0  0  0  0
    6.3670    4.0221   -3.4345 H   0  0  0  0  0  0  0  0  0  0  0  0
    5.3472    3.5248   -5.4132 H   0  0  0  0  0  0  0  0  0  0  0  0
    4.7567    0.6673   -4.3774 H   0  0  0  0  0  0  0  0  0  0  0  0
    4.3695    2.0143   -7.1310 H   0  0  0  0  0  0  0  0  0  0  0  0
    3.9995   -0.8654   -5.9346 H   0  0  0  0  0  0  0  0  0  0  0  0
    0.5369   -3.0961   -8.6210 H   0  0  0  0  0  0  0  0  0  0  0  0
  1  2  1  0  0  0  0
  1 16  1  0  0  0  0
  1 17  1  0  0  0  0
  1 18  1  0  0  0  0
  2  3  1  0  0  0  0
  2 19  1  0  0  0  0
  2 20  1  0  0  0  0
  3  4  1  0  0  0  0
  3 21  1  0  0  0  0
  3 22  1  0  0  0  0
  4  5  2  0  0  0  0
  4 23  1  0  0  0  0
  5  6  1  0  0  0  0
  5 24  1  0  0  0  0
  6  7  1  0  0  0  0
  6 25  1  0  0  0  0
  6 26  1  0  0  0  0
  7  8  2  0  0  0  0
  7 27  1  0  0  0  0
  8  9  1  0  0  0  0
  8 28  1  0  0  0  0
  9 10  2  0  0  0  0
  9 29  1  0  0  0  0
 10 11  1  0  0  0  0
 10 30  1  0  0  0  0
 11 12  2  0  0  0  0
 11 31  1  0  0  0  0
 12 13  1  0  0  0  0
 13 14  2  0  0  0  0
 14 15  1  0  0  0  0
 15 32  1  0  0  0  0
M  END
$$$$