3521382 3521381
 OpenBabel01211413523D

 32 33  0  0  0  0  0  0  0  0999 V2000
    3.3077   -4.4150   -1.1421 N   0  0  0  0  0  0  0  0  0  0  0  0
    3.2687   -3.1855   -1.7350 C   0  0  0  0  0  0  0  0  0  0  0  0
    3.0726   -3.0676   -2.9404 O   0  0  0  0  0  0  0  0  0  0  0  0
    3.4927   -2.0063   -0.8092 C   0  0  0  0  0  0  0  0  0  0  0  0
    5.2367   -1.9127   -0.2975 S   0  0  0  0  0  0  0  0  0  0  0  0
    5.9863   -1.5785   -1.9239 C   0  0  0  0  0  0  0  0  0  0  0  0
    7.4822   -1.4202   -1.8122 C   0  0  0  0  0  0  0  0  0  0  0  0
    8.0597   -0.1524   -1.6467 C   0  0  0  0  0  0  0  0  0  0  0  0
    9.4473   -0.0143   -1.5310 C   0  0  0  0  0  0  0  0  0  0  0  0
   10.0969    1.5734   -1.3248 Cl  0  0  0  0  0  0  0  0  0  0  0  0
   10.2789   -1.1368   -1.5993 C   0  0  0  0  0  0  0  0  0  0  0  0
    9.7055   -2.4024   -1.7527 C   0  0  0  0  0  0  0  0  0  0  0  0
    8.3194   -2.5452   -1.8407 C   0  0  0  0  0  0  0  0  0  0  0  0
   10.4383   -3.5589   -1.7293 O   0  0  0  0  0  0  0  0  0  0  0  0
   11.3396   -3.6443   -2.8340 C   0  0  0  0  0  0  0  0  0  0  0  0
   12.6264   -2.8726   -2.5829 C   0  0  0  0  0  0  0  0  0  0  0  0
   12.3741   -1.3723   -2.5644 C   0  0  0  0  0  0  0  0  0  0  0  0
   11.6276   -0.9794   -1.4129 O   0  0  0  0  0  0  0  0  0  0  0  0
    3.7475   -4.5360   -0.2388 H   0  0  0  0  0  0  0  0  0  0  0  0
    3.2557   -5.2206   -1.7532 H   0  0  0  0  0  0  0  0  0  0  0  0
    2.8637   -2.1246    0.0788 H   0  0  0  0  0  0  0  0  0  0  0  0
    3.1925   -1.0803   -1.3096 H   0  0  0  0  0  0  0  0  0  0  0  0
    5.5464   -0.6680   -2.3458 H   0  0  0  0  0  0  0  0  0  0  0  0
    5.7678   -2.3985   -2.6159 H   0  0  0  0  0  0  0  0  0  0  0  0
    7.4258    0.7309   -1.5941 H   0  0  0  0  0  0  0  0  0  0  0  0
    7.8942   -3.5429   -1.9260 H   0  0  0  0  0  0  0  0  0  0  0  0
   11.5861   -4.7060   -2.9489 H   0  0  0  0  0  0  0  0  0  0  0  0
   10.8526   -3.3356   -3.7687 H   0  0  0  0  0  0  0  0  0  0  0  0
   13.3490   -3.1086   -3.3716 H   0  0  0  0  0  0  0  0  0  0  0  0
   13.0495   -3.1794   -1.6191 H   0  0  0  0  0  0  0  0  0  0  0  0
   11.8961   -1.0251   -3.4906 H   0  0  0  0  0  0  0  0  0  0  0  0
   13.3386   -0.8552   -2.5001 H   0  0  0  0  0  0  0  0  0  0  0  0
  1  2  1  0  0  0  0
  1 19  1  0  0  0  0
  1 20  1  0  0  0  0
  2  4  1  0  0  0  0
  2  3  2  0  0  0  0
  4  5  1  0  0  0  0
  4 21  1  0  0  0  0
  4 22  1  0  0  0  0
  5  6  1  0  0  0  0
  6  7  1  0  0  0  0
  6 23  1  0  0  0  0
  6 24  1  0  0  0  0
  7 13  1  0  0  0  0
  7  8  2  0  0  0  0
  8  9  1  0  0  0  0
  8 25  1  0  0  0  0
  9 11  2  0  0  0  0
  9 10  1  0  0  0  0
 11 12  1  0  0  0  0
 11 18  1  0  0  0  0
 12 14  1  0  0  0  0
 12 13  2  0  0  0  0
 13 26  1  0  0  0  0
 14 15  1  0  0  0  0
 15 16  1  0  0  0  0
 15 27  1  0  0  0  0
 15 28  1  0  0  0  0
 16 17  1  0  0  0  0
 16 29  1  0  0  0  0
 16 30  1  0  0  0  0
 17 18  1  0  0  0  0
 17 31  1  0  0  0  0
 17 32  1  0  0  0  0
M  END
$$$$