441231 441230
 OpenBabel01211413163D

 24 25  0  0  0  0  0  0  0  0999 V2000
    0.2932   -3.1078    2.2322 O   0  0  0  0  0  0  0  0  0  0  0  0
    0.8200   -2.8678    1.1531 C   0  0  0  0  0  0  0  0  0  0  0  0
    1.5904   -1.6310    0.9142 C   0  0  0  0  0  0  0  0  0  0  0  0
    1.7592   -0.6972    1.9411 C   0  0  0  0  0  0  0  0  0  0  0  0
    2.5049    0.4595    1.7086 C   0  0  0  0  0  0  0  0  0  0  0  0
    3.0808    0.6726    0.4538 C   0  0  0  0  0  0  0  0  0  0  0  0
    2.8849   -0.2403   -0.5827 C   0  0  0  0  0  0  0  0  0  0  0  0
    2.1466   -1.4040   -0.3481 C   0  0  0  0  0  0  0  0  0  0  0  0
    3.8046    1.8792    0.3174 O   0  0  0  0  0  0  0  0  0  0  0  0
    4.8410    2.0585   -0.6078 C   0  0  0  0  0  0  0  0  0  0  0  0
    5.2504    1.1965   -1.3783 O   0  0  0  0  0  0  0  0  0  0  0  0
    5.3443    3.4158   -0.5039 C   0  0  0  0  0  0  0  0  0  0  0  0
    5.1491    4.3596    0.4896 C   0  0  0  0  0  0  0  0  0  0  0  0
    5.8230    5.5869    0.2178 C   0  0  0  0  0  0  0  0  0  0  0  0
    6.5014    5.5476   -0.9788 C   0  0  0  0  0  0  0  0  0  0  0  0
    6.3465    4.0326   -1.7533 S   0  0  0  0  0  0  0  0  0  0  0  0
    0.7420   -3.5714    0.3073 H   0  0  0  0  0  0  0  0  0  0  0  0
    1.3148   -0.8699    2.9192 H   0  0  0  0  0  0  0  0  0  0  0  0
    2.6367    1.1866    2.5052 H   0  0  0  0  0  0  0  0  0  0  0  0
    3.2926   -0.0743   -1.5756 H   0  0  0  0  0  0  0  0  0  0  0  0
    2.0143   -2.1193   -1.1560 H   0  0  0  0  0  0  0  0  0  0  0  0
    4.5594    4.1790    1.3809 H   0  0  0  0  0  0  0  0  0  0  0  0
    5.8094    6.4547    0.8663 H   0  0  0  0  0  0  0  0  0  0  0  0
    7.0883    6.3332   -1.4355 H   0  0  0  0  0  0  0  0  0  0  0  0
  1  2  2  0  0  0  0
  2  3  1  0  0  0  0
  2 17  1  0  0  0  0
  3  4  2  0  0  0  0
  3  8  1  0  0  0  0
  4  5  1  0  0  0  0
  4 18  1  0  0  0  0
  5  6  2  0  0  0  0
  5 19  1  0  0  0  0
  6  7  1  0  0  0  0
  6  9  1  0  0  0  0
  7  8  2  0  0  0  0
  7 20  1  0  0  0  0
  8 21  1  0  0  0  0
  9 10  1  0  0  0  0
 10 12  1  0  0  0  0
 10 11  2  0  0  0  0
 12 13  2  0  0  0  0
 12 16  1  0  0  0  0
 13 14  1  0  0  0  0
 13 22  1  0  0  0  0
 14 15  2  0  0  0  0
 14 23  1  0  0  0  0
 15 16  1  0  0  0  0
 15 24  1  0  0  0  0
M  END
$$$$