1117582 1117581
 OpenBabel01211413403D

 51 54  0  0  1  0  0  0  0  0999 V2000
   13.4036   -5.9228  -10.0413 C   0  0  0  0  0  0  0  0  0  0  0  0
   12.3899   -4.9409  -10.2635 O   0  0  0  0  0  0  0  0  0  0  0  0
   11.4366   -4.8786   -9.2826 C   0  0  0  0  0  0  0  0  0  0  0  0
   11.4075   -5.6439   -8.3213 O   0  0  0  0  0  0  0  0  0  0  0  0
   10.4828   -3.6886   -9.5253 C   0  0  3  0  0  0  0  0  0  0  0  0
    9.1716   -3.8972  -10.3402 C   0  0  3  0  0  0  0  0  0  0  0  0
    8.5569   -5.3650  -10.5130 C   0  0  0  0  0  0  0  0  0  0  0  0
    7.5764   -5.9176   -9.6661 C   0  0  0  0  0  0  0  0  0  0  0  0
    7.0142   -7.1782   -9.9001 C   0  0  0  0  0  0  0  0  0  0  0  0
    7.4289   -7.9363  -10.9881 C   0  0  0  0  0  0  0  0  0  0  0  0
    8.4115   -7.4384  -11.8337 C   0  0  0  0  0  0  0  0  0  0  0  0
    8.9631   -6.1760  -11.5949 C   0  0  0  0  0  0  0  0  0  0  0  0
    8.4928   -2.8655   -9.3713 C   0  0  3  0  0  0  0  0  0  0  0  0
    9.5997   -3.2165   -8.3350 C   0  0  3  0  0  0  0  0  0  0  0  0
   10.1263   -2.0948   -7.3365 C   0  0  0  0  0  0  0  0  0  0  0  0
    9.6771   -2.0580   -5.9994 C   0  0  0  0  0  0  0  0  0  0  0  0
   10.1216   -1.0964   -5.0867 C   0  0  0  0  0  0  0  0  0  0  0  0
   11.0403   -0.1343   -5.4859 C   0  0  0  0  0  0  0  0  0  0  0  0
   11.5037   -0.1335   -6.7960 C   0  0  0  0  0  0  0  0  0  0  0  0
   11.0469   -1.0943   -7.7041 C   0  0  0  0  0  0  0  0  0  0  0  0
    8.3916   -1.4061   -9.8908 C   0  0  0  0  0  0  0  0  0  0  0  0
    9.0212   -0.9442  -10.8408 O   0  0  0  0  0  0  0  0  0  0  0  0
    7.4526   -0.7006   -9.1966 O   0  0  0  0  0  0  0  0  0  0  0  0
    7.2021    0.6338   -9.6595 C   0  0  0  0  0  0  0  0  0  0  0  0
    8.2513    1.5405   -9.1374 C   0  0  0  0  0  0  0  0  0  0  0  0
    9.2497    2.2737   -9.7459 C   0  0  0  0  0  0  0  0  0  0  0  0
    9.9384    2.9484   -8.7105 C   0  0  0  0  0  0  0  0  0  0  0  0
    9.3158    2.5853   -7.5384 C   0  0  0  0  0  0  0  0  0  0  0  0
    8.2833    1.7393   -7.7887 O   0  0  0  0  0  0  0  0  0  0  0  0
   14.1111   -5.8697  -10.8737 H   0  0  0  0  0  0  0  0  0  0  0  0
   12.9715   -6.9262  -10.0158 H   0  0  0  0  0  0  0  0  0  0  0  0
   13.9459   -5.7070   -9.1157 H   0  0  0  0  0  0  0  0  0  0  0  0
   11.0571   -2.8574   -9.9673 H   0  0  0  0  0  0  0  0  0  0  0  0
    9.2844   -3.4718  -11.3495 H   0  0  0  0  0  0  0  0  0  0  0  0
    7.2214   -5.3620   -8.8015 H   0  0  0  0  0  0  0  0  0  0  0  0
    6.2479   -7.5616   -9.2308 H   0  0  0  0  0  0  0  0  0  0  0  0
    6.9882   -8.9115  -11.1745 H   0  0  0  0  0  0  0  0  0  0  0  0
    8.7464   -8.0250  -12.6847 H   0  0  0  0  0  0  0  0  0  0  0  0
    9.7239   -5.8039  -12.2807 H   0  0  0  0  0  0  0  0  0  0  0  0
    7.5021   -3.1838   -9.0216 H   0  0  0  0  0  0  0  0  0  0  0  0
    9.2794   -4.0876   -7.7364 H   0  0  0  0  0  0  0  0  0  0  0  0
    8.9608   -2.8040   -5.6584 H   0  0  0  0  0  0  0  0  0  0  0  0
    9.7474   -1.1034   -4.0667 H   0  0  0  0  0  0  0  0  0  0  0  0
   11.3877    0.6158   -4.7819 H   0  0  0  0  0  0  0  0  0  0  0  0
   12.2122    0.6231   -7.1223 H   0  0  0  0  0  0  0  0  0  0  0  0
   11.4201   -1.0431   -8.7246 H   0  0  0  0  0  0  0  0  0  0  0  0
    6.2239    0.9349   -9.2685 H   0  0  0  0  0  0  0  0  0  0  0  0
    7.1339    0.6629  -10.7534 H   0  0  0  0  0  0  0  0  0  0  0  0
    9.4569    2.3034  -10.8065 H   0  0  0  0  0  0  0  0  0  0  0  0
   10.7873    3.6089   -8.8032 H   0  0  0  0  0  0  0  0  0  0  0  0
    9.4821    2.8211   -6.4971 H   0  0  0  0  0  0  0  0  0  0  0  0
  1  2  1  0  0  0  0
  1 30  1  0  0  0  0
  1 31  1  0  0  0  0
  1 32  1  0  0  0  0
  2  3  1  0  0  0  0
  3  5  1  0  0  0  0
  3  4  2  0  0  0  0
  5 14  1  0  0  0  0
  5  6  1  0  0  0  0
  5 33  1  0  0  0  0
  6 13  1  0  0  0  0
  6  7  1  0  0  0  0
  6 34  1  0  0  0  0
  7  8  2  0  0  0  0
  7 12  1  0  0  0  0
  8  9  1  0  0  0  0
  8 35  1  0  0  0  0
  9 10  2  0  0  0  0
  9 36  1  0  0  0  0
 10 11  1  0  0  0  0
 10 37  1  0  0  0  0
 11 12  2  0  0  0  0
 11 38  1  0  0  0  0
 12 39  1  0  0  0  0
 13 14  1  0  0  0  0
 13 21  1  0  0  0  0
 13 40  1  0  0  0  0
 14 15  1  0  0  0  0
 14 41  1  0  0  0  0
 15 16  2  0  0  0  0
 15 20  1  0  0  0  0
 16 17  1  0  0  0  0
 16 42  1  0  0  0  0
 17 18  2  0  0  0  0
 17 43  1  0  0  0  0
 18 19  1  0  0  0  0
 18 44  1  0  0  0  0
 19 20  2  0  0  0  0
 19 45  1  0  0  0  0
 20 46  1  0  0  0  0
 21 23  1  0  0  0  0
 21 22  2  0  0  0  0
 23 24  1  0  0  0  0
 24 25  1  0  0  0  0
 24 47  1  0  0  0  0
 24 48  1  0  0  0  0
 25 26  2  0  0  0  0
 25 29  1  0  0  0  0
 26 27  1  0  0  0  0
 26 49  1  0  0  0  0
 27 28  2  0  0  0  0
 27 50  1  0  0  0  0
 28 29  1  0  0  0  0
 28 51  1  0  0  0  0
M  END
$$$$