527043 527042
 OpenBabel01211413233D

 19 19  0  0  0  0  0  0  0  0999 V2000
    2.2291   -1.5211    2.3936 C   0  0  0  0  0  0  0  0  0  0  0  0
    3.5136   -1.2126    1.8501 O   0  0  0  0  0  0  0  0  0  0  0  0
    3.8217    0.1062    1.8791 C   0  0  0  0  0  0  0  0  0  0  0  0
    3.1172    1.0041    2.3125 O   0  0  0  0  0  0  0  0  0  0  0  0
    5.1541    0.3526    1.2924 C   0  0  0  0  0  0  0  0  0  0  0  0
    6.0096   -0.5957    0.8776 C   0  0  0  0  0  0  0  0  0  0  0  0
    7.3107   -0.1250    0.3154 C   0  0  0  0  0  0  0  0  0  0  0  0
    7.1958    1.6586    0.4119 S   0  0  0  0  0  0  0  0  0  0  0  0
    8.1830    2.1336    1.3622 O   0  0  0  0  0  0  0  0  0  0  0  0
    7.1274    2.1882   -0.9369 O   0  0  0  0  0  0  0  0  0  0  0  0
    5.5779    1.7790    1.1565 C   0  0  0  0  0  0  0  0  0  0  0  0
    2.1049   -2.6076    2.3712 H   0  0  0  0  0  0  0  0  0  0  0  0
    1.4393   -1.0686    1.7853 H   0  0  0  0  0  0  0  0  0  0  0  0
    2.1587   -1.1864    3.4334 H   0  0  0  0  0  0  0  0  0  0  0  0
    5.7981   -1.6576    0.9358 H   0  0  0  0  0  0  0  0  0  0  0  0
    8.1551   -0.4633    0.9194 H   0  0  0  0  0  0  0  0  0  0  0  0
    7.4299   -0.4210   -0.7281 H   0  0  0  0  0  0  0  0  0  0  0  0
    4.9235    2.3421    0.4861 H   0  0  0  0  0  0  0  0  0  0  0  0
    5.6723    2.2764    2.1254 H   0  0  0  0  0  0  0  0  0  0  0  0
  1  2  1  0  0  0  0
  1 12  1  0  0  0  0
  1 13  1  0  0  0  0
  1 14  1  0  0  0  0
  2  3  1  0  0  0  0
  3  5  1  0  0  0  0
  3  4  2  0  0  0  0
  5  6  2  0  0  0  0
  5 11  1  0  0  0  0
  6  7  1  0  0  0  0
  6 15  1  0  0  0  0
  7  8  1  0  0  0  0
  7 16  1  0  0  0  0
  7 17  1  0  0  0  0
  8 11  1  0  0  0  0
  8 10  2  0  0  0  0
  8  9  2  0  0  0  0
 11 18  1  0  0  0  0
 11 19  1  0  0  0  0
M  END
$$$$