16167616 16167615
 OpenBabel01211414003D

 37 39  0  0  0  0  0  0  0  0999 V2000
    2.6262   -1.2277    2.5627 C   0  0  0  0  0  0  0  0  0  0  0  0
    3.9074   -1.6153    2.6214 C   0  0  0  0  0  0  0  0  0  0  0  0
    4.9894   -1.2628    1.6259 C   0  0  0  0  0  0  0  0  0  0  0  0
    5.9640   -0.2485    2.1481 N   0  0  0  0  0  0  0  0  0  0  0  0
    6.2057    0.8561    1.4293 C   0  0  0  0  0  0  0  0  0  0  0  0
    6.9014    2.0364    1.4753 C   0  0  0  0  0  0  0  0  0  0  0  0
    6.5010    2.4828    0.1468 C   0  0  0  0  0  0  0  0  0  0  0  0
    6.7482    3.3431   -0.6668 O   0  0  0  0  0  0  0  0  0  0  0  0
    5.6615    1.2511    0.0929 C   0  0  0  0  0  0  0  0  0  0  0  0
    4.9316    0.8260   -0.7794 O   0  0  0  0  0  0  0  0  0  0  0  0
    7.9974    2.6730    2.2191 C   0  0  0  0  0  0  0  0  0  0  0  0
    7.7236    3.8974    2.8447 C   0  0  0  0  0  0  0  0  0  0  0  0
    8.6580    4.4373    3.7302 C   0  0  0  0  0  0  0  0  0  0  0  0
    9.8885    3.8052    3.9150 C   0  0  0  0  0  0  0  0  0  0  0  0
   10.1764    2.6196    3.2358 C   0  0  0  0  0  0  0  0  0  0  0  0
    9.2131    2.0243    2.4169 C   0  0  0  0  0  0  0  0  0  0  0  0
    6.5530   -0.5617    3.4166 C   0  0  0  0  0  0  0  0  0  0  0  0
    6.7981   -1.8888    3.8258 C   0  0  0  0  0  0  0  0  0  0  0  0
    7.3418   -2.1917    5.0812 C   0  0  0  0  0  0  0  0  0  0  0  0
    7.7193   -1.1700    5.9449 C   0  0  0  0  0  0  0  0  0  0  0  0
    7.5157    0.1478    5.5634 C   0  0  0  0  0  0  0  0  0  0  0  0
    6.9079    0.4379    4.3344 C   0  0  0  0  0  0  0  0  0  0  0  0
    1.9137   -1.5740    3.3069 H   0  0  0  0  0  0  0  0  0  0  0  0
    2.2584   -0.5648    1.7823 H   0  0  0  0  0  0  0  0  0  0  0  0
    4.1810   -2.2989    3.4208 H   0  0  0  0  0  0  0  0  0  0  0  0
    4.4848   -0.9026    0.7285 H   0  0  0  0  0  0  0  0  0  0  0  0
    5.5231   -2.1639    1.3059 H   0  0  0  0  0  0  0  0  0  0  0  0
    6.7566    4.3787    2.7368 H   0  0  0  0  0  0  0  0  0  0  0  0
    8.4180    5.3343    4.2883 H   0  0  0  0  0  0  0  0  0  0  0  0
   10.6186    4.2332    4.5943 H   0  0  0  0  0  0  0  0  0  0  0  0
   11.1504    2.1460    3.3619 H   0  0  0  0  0  0  0  0  0  0  0  0
    9.4389    1.0913    1.9170 H   0  0  0  0  0  0  0  0  0  0  0  0
    6.5625   -2.7258    3.1795 H   0  0  0  0  0  0  0  0  0  0  0  0
    7.4746   -3.2273    5.3770 H   0  0  0  0  0  0  0  0  0  0  0  0
    8.1611   -1.4009    6.9100 H   0  0  0  0  0  0  0  0  0  0  0  0
    7.8106    0.9618    6.2258 H   0  0  0  0  0  0  0  0  0  0  0  0
    6.6939    1.4788    4.1337 H   0  0  0  0  0  0  0  0  0  0  0  0
  1  2  2  0  0  0  0
  1 23  1  0  0  0  0
  1 24  1  0  0  0  0
  2  3  1  0  0  0  0
  2 25  1  0  0  0  0
  3  4  1  0  0  0  0
  3 26  1  0  0  0  0
  3 27  1  0  0  0  0
  4 17  1  0  0  0  0
  4  5  1  0  0  0  0
  5  9  1  0  0  0  0
  5  6  2  0  0  0  0
  6  7  1  0  0  0  0
  6 11  1  0  0  0  0
  7  9  1  0  0  0  0
  7  8  2  0  0  0  0
  9 10  2  0  0  0  0
 11 12  2  0  0  0  0
 11 16  1  0  0  0  0
 12 13  1  0  0  0  0
 12 28  1  0  0  0  0
 13 14  2  0  0  0  0
 13 29  1  0  0  0  0
 14 15  1  0  0  0  0
 14 30  1  0  0  0  0
 15 16  2  0  0  0  0
 15 31  1  0  0  0  0
 16 32  1  0  0  0  0
 17 18  2  0  0  0  0
 17 22  1  0  0  0  0
 18 19  1  0  0  0  0
 18 33  1  0  0  0  0
 19 20  2  0  0  0  0
 19 34  1  0  0  0  0
 20 21  1  0  0  0  0
 20 35  1  0  0  0  0
 21 22  2  0  0  0  0
 21 36  1  0  0  0  0
 22 37  1  0  0  0  0
M  END
$$$$