719741 719740
 OpenBabel01211413323D

 14 13  0  0  0  0  0  0  0  0999 V2000
    1.4774   -0.8002   -1.3748 O   0  0  0  0  0  0  0  0  0  0  0  0
    2.4497   -0.3493   -0.7764 C   0  0  0  0  0  0  0  0  0  0  0  0
    2.8397    0.9755   -0.7801 N   0  0  0  0  0  0  0  0  0  0  0  0
    2.1583    1.8623   -1.6413 N   0  0  0  0  0  0  0  0  0  0  0  0
    2.8391    2.3465   -2.7407 C   0  0  0  0  0  0  0  0  0  0  0  0
    4.0318    2.1624   -2.9688 O   0  0  0  0  0  0  0  0  0  0  0  0
    0.8184    2.1149   -1.4246 C   0  0  0  0  0  0  0  0  0  0  0  0
    0.1321    2.9053   -2.0608 O   0  0  0  0  0  0  0  0  0  0  0  0
    3.9315    1.4328   -0.0694 C   0  0  0  0  0  0  0  0  0  0  0  0
    4.5687    0.7838    0.7519 O   0  0  0  0  0  0  0  0  0  0  0  0
    3.0881   -0.9879   -0.1426 H   0  0  0  0  0  0  0  0  0  0  0  0
    2.2103    2.9615   -3.4059 H   0  0  0  0  0  0  0  0  0  0  0  0
    0.4070    1.5613   -0.5645 H   0  0  0  0  0  0  0  0  0  0  0  0
    4.1670    2.4913   -0.2714 H   0  0  0  0  0  0  0  0  0  0  0  0
  1  2  2  0  0  0  0
  2  3  1  0  0  0  0
  2 11  1  0  0  0  0
  3  9  1  0  0  0  0
  3  4  1  0  0  0  0
  4  7  1  0  0  0  0
  4  5  1  0  0  0  0
  5  6  2  0  0  0  0
  5 12  1  0  0  0  0
  7  8  2  0  0  0  0
  7 13  1  0  0  0  0
  9 10  2  0  0  0  0
  9 14  1  0  0  0  0
M  END
$$$$