24177794 24177793
 OpenBabel01211414023D

 25 25  0  0  0  0  0  0  0  0999 V2000
    2.5013   -0.4152   -1.7044 C   0  0  0  0  0  0  0  0  0  0  0  0
    3.7084   -0.3736   -1.1264 C   0  0  0  0  0  0  0  0  0  0  0  0
    4.5771   -1.5804   -0.9067 C   0  0  0  0  0  0  0  0  0  0  0  0
    4.8735   -1.7998    0.5803 C   0  0  0  0  0  0  0  0  0  0  0  0
    5.7325   -3.0227    0.7987 C   0  0  0  0  0  0  0  0  0  0  0  0
    7.1278   -2.9164    0.8245 C   0  0  0  0  0  0  0  0  0  0  0  0
    7.9219   -4.0538    0.9934 C   0  0  0  0  0  0  0  0  0  0  0  0
    7.3341   -5.3189    1.1346 C   0  0  0  0  0  0  0  0  0  0  0  0
    5.9352   -5.4216    1.1075 C   0  0  0  0  0  0  0  0  0  0  0  0
    5.1422   -4.2845    0.9392 C   0  0  0  0  0  0  0  0  0  0  0  0
    8.1758   -6.5587    1.3071 C   0  0  0  0  0  0  0  0  0  0  0  0
    7.9129   -7.2103    2.4741 F   0  0  0  0  0  0  0  0  0  0  0  0
    7.9687   -7.4709    0.3165 F   0  0  0  0  0  0  0  0  0  0  0  0
    9.5165   -6.3139    1.3118 F   0  0  0  0  0  0  0  0  0  0  0  0
    1.9210    0.4917   -1.8454 H   0  0  0  0  0  0  0  0  0  0  0  0
    2.0658   -1.3467   -2.0532 H   0  0  0  0  0  0  0  0  0  0  0  0
    4.1053    0.5867   -0.8028 H   0  0  0  0  0  0  0  0  0  0  0  0
    5.5148   -1.4361   -1.4577 H   0  0  0  0  0  0  0  0  0  0  0  0
    4.1038   -2.4758   -1.3296 H   0  0  0  0  0  0  0  0  0  0  0  0
    3.9383   -1.9090    1.1452 H   0  0  0  0  0  0  0  0  0  0  0  0
    5.3772   -0.9206    1.0030 H   0  0  0  0  0  0  0  0  0  0  0  0
    7.6073   -1.9463    0.7097 H   0  0  0  0  0  0  0  0  0  0  0  0
    9.0056   -3.9461    1.0096 H   0  0  0  0  0  0  0  0  0  0  0  0
    5.4566   -6.3942    1.2136 H   0  0  0  0  0  0  0  0  0  0  0  0
    4.0593   -4.3896    0.9142 H   0  0  0  0  0  0  0  0  0  0  0  0
  1  2  2  0  0  0  0
  1 15  1  0  0  0  0
  1 16  1  0  0  0  0
  2  3  1  0  0  0  0
  2 17  1  0  0  0  0
  3  4  1  0  0  0  0
  3 18  1  0  0  0  0
  3 19  1  0  0  0  0
  4  5  1  0  0  0  0
  4 20  1  0  0  0  0
  4 21  1  0  0  0  0
  5  6  2  0  0  0  0
  5 10  1  0  0  0  0
  6  7  1  0  0  0  0
  6 22  1  0  0  0  0
  7  8  2  0  0  0  0
  7 23  1  0  0  0  0
  8  9  1  0  0  0  0
  8 11  1  0  0  0  0
  9 10  2  0  0  0  0
  9 24  1  0  0  0  0
 10 25  1  0  0  0  0
 11 14  1  0  0  0  0
 11 13  1  0  0  0  0
 11 12  1  0  0  0  0
M  END
$$$$