475531 475530
 OpenBabel01211413173D

 12 11  0  0  0  0  0  0  0  0999 V2000
    0.8355   -0.5910   -0.4188 C   0  0  0  0  0  0  0  0  0  0  0  0
    2.0711    0.1869   -0.0035 C   0  0  0  0  0  0  0  0  0  0  0  0
    1.7273    1.4728    0.5633 N   0  0  0  0  0  0  0  0  0  0  0  0
    1.3972    1.6191    1.8857 C   0  0  0  0  0  0  0  0  0  0  0  0
    1.3817    0.7292    2.7231 O   0  0  0  0  0  0  0  0  0  0  0  0
    1.1199   -1.5472   -0.8685 H   0  0  0  0  0  0  0  0  0  0  0  0
    0.2471   -0.0280   -1.1511 H   0  0  0  0  0  0  0  0  0  0  0  0
    0.1892   -0.7955    0.4411 H   0  0  0  0  0  0  0  0  0  0  0  0
    2.7095    0.3745   -0.8725 H   0  0  0  0  0  0  0  0  0  0  0  0
    2.6469   -0.3880    0.7296 H   0  0  0  0  0  0  0  0  0  0  0  0
    1.6453    2.2736   -0.0493 H   0  0  0  0  0  0  0  0  0  0  0  0
    1.1357    2.6625    2.1285 H   0  0  0  0  0  0  0  0  0  0  0  0
  1  2  1  0  0  0  0
  1  6  1  0  0  0  0
  1  7  1  0  0  0  0
  1  8  1  0  0  0  0
  2  3  1  0  0  0  0
  2  9  1  0  0  0  0
  2 10  1  0  0  0  0
  3  4  1  0  0  0  0
  3 11  1  0  0  0  0
  4  5  2  0  0  0  0
  4 12  1  0  0  0  0
M  END
$$$$