2795885 504945
 OpenBabel01211413503D

 14 14  0  0  0  0  0  0  0  0999 V2000
    1.0829   -0.2514   -0.4089 N   0  0  0  0  0  0  0  0  0  0  0  0
    2.2865    0.1904    0.0768 C   0  0  0  0  0  0  0  0  0  0  0  0
    2.8436    1.2731   -0.3619 N   0  0  0  0  0  0  0  0  0  0  0  0
    2.9111   -0.5651    1.1040 N   0  0  0  0  0  0  0  0  0  0  0  0
    4.1168   -0.3479    1.7291 C   0  0  0  0  0  0  0  0  0  0  0  0
    4.2649   -1.3439    2.6631 C   0  0  0  0  0  0  0  0  0  0  0  0
    3.0959   -2.1167    2.5457 C   0  0  0  0  0  0  0  0  0  0  0  0
    2.2589   -1.6544    1.6126 N   0  0  0  0  0  0  0  0  0  0  0  0
    0.6956   -0.9983    0.1735 H   0  0  0  0  0  0  0  0  0  0  0  0
    0.4037    0.4705   -0.6090 H   0  0  0  0  0  0  0  0  0  0  0  0
    2.2629    1.6502   -1.1156 H   0  0  0  0  0  0  0  0  0  0  0  0
    4.7403    0.4864    1.4398 H   0  0  0  0  0  0  0  0  0  0  0  0
    5.0987   -1.4898    3.3349 H   0  0  0  0  0  0  0  0  0  0  0  0
    2.8179   -3.0000    3.1071 H   0  0  0  0  0  0  0  0  0  0  0  0
  1  2  1  0  0  0  0
  1  9  1  0  0  0  0
  1 10  1  0  0  0  0
  2  4  1  0  0  0  0
  2  3  2  0  0  0  0
  3 11  1  0  0  0  0
  4  5  1  0  0  0  0
  4  8  1  0  0  0  0
  5  6  2  0  0  0  0
  5 12  1  0  0  0  0
  6  7  1  0  0  0  0
  6 13  1  0  0  0  0
  7  8  2  0  0  0  0
  7 14  1  0  0  0  0
M  END
$$$$