508995 508994
 OpenBabel01211413213D

 51 55  0  0  0  0  0  0  0  0999 V2000
   -1.4301    0.4004   -0.4954 C   0  0  0  0  0  0  0  0  0  0  0  0
   -0.6746    1.4640   -0.0071 C   0  0  0  0  0  0  0  0  0  0  0  0
    0.7071    1.3240    0.2129 C   0  0  0  0  0  0  0  0  0  0  0  0
    1.3710    0.1170   -0.0510 C   0  0  0  0  0  0  0  0  0  0  0  0
    0.5629   -0.9420   -0.5427 C   0  0  0  0  0  0  0  0  0  0  0  0
   -0.8124   -0.8140   -0.7536 C   0  0  0  0  0  0  0  0  0  0  0  0
    3.1493    0.2048   -0.2536 P   0  0  3  0  0  0  0  0  0  0  0  0
    3.2252   -1.2773    0.1239 N   0  0  0  0  0  0  0  0  0  0  0  0
    3.5332   -1.6453    1.5293 C   0  0  0  0  0  0  0  0  0  0  0  0
    2.8767   -0.9708    2.6662 N   0  0  0  0  0  0  0  0  0  0  0  0
    3.6605   -0.3898    3.6187 N   0  0  0  0  0  0  0  0  0  0  0  0
    2.8671    0.2966    4.4302 N   0  0  0  0  0  0  0  0  0  0  0  0
    1.5759    0.0691    4.0446 C   0  0  0  0  0  0  0  0  0  0  0  0
    1.5482   -0.8710    3.0218 C   0  0  0  0  0  0  0  0  0  0  0  0
    0.3421   -1.3928    2.5382 C   0  0  0  0  0  0  0  0  0  0  0  0
   -0.8412   -0.7715    2.9667 C   0  0  0  0  0  0  0  0  0  0  0  0
   -0.8267    0.2486    3.9174 C   0  0  0  0  0  0  0  0  0  0  0  0
    0.3794    0.6364    4.5085 C   0  0  0  0  0  0  0  0  0  0  0  0
    2.9639   -0.1696   -2.1510 C   0  0  0  0  0  0  0  0  0  0  0  0
    2.8230    0.9684   -2.9646 C   0  0  0  0  0  0  0  0  0  0  0  0
    2.6720    0.8382   -4.3454 C   0  0  0  0  0  0  0  0  0  0  0  0
    2.6590   -0.4288   -4.9288 C   0  0  0  0  0  0  0  0  0  0  0  0
    2.8028   -1.5652   -4.1333 C   0  0  0  0  0  0  0  0  0  0  0  0
    2.9582   -1.4386   -2.7516 C   0  0  0  0  0  0  0  0  0  0  0  0
    4.9277    0.2927   -0.4562 C   0  0  0  0  0  0  0  0  0  0  0  0
    5.5181    1.4488    0.0865 C   0  0  0  0  0  0  0  0  0  0  0  0
    6.8989    1.6584    0.0415 C   0  0  0  0  0  0  0  0  0  0  0  0
    7.7260    0.7100   -0.5523 C   0  0  0  0  0  0  0  0  0  0  0  0
    7.1697   -0.4452   -1.0941 C   0  0  0  0  0  0  0  0  0  0  0  0
    5.7874   -0.6500   -1.0417 C   0  0  0  0  0  0  0  0  0  0  0  0
   -2.4911    0.5209   -0.6934 H   0  0  0  0  0  0  0  0  0  0  0  0
   -1.1480    2.4258    0.1623 H   0  0  0  0  0  0  0  0  0  0  0  0
    1.2866    2.1842    0.5290 H   0  0  0  0  0  0  0  0  0  0  0  0
    1.0356   -1.8835   -0.8135 H   0  0  0  0  0  0  0  0  0  0  0  0
   -1.3683   -1.6547   -1.1531 H   0  0  0  0  0  0  0  0  0  0  0  0
    4.6102   -1.5497    1.7164 H   0  0  0  0  0  0  0  0  0  0  0  0
    3.3086   -2.7088    1.6824 H   0  0  0  0  0  0  0  0  0  0  0  0
    0.3296   -2.1464    1.7603 H   0  0  0  0  0  0  0  0  0  0  0  0
   -1.7808   -1.0484    2.4936 H   0  0  0  0  0  0  0  0  0  0  0  0
   -1.7503    0.7477    4.1941 H   0  0  0  0  0  0  0  0  0  0  0  0
    0.4065    1.4024    5.2728 H   0  0  0  0  0  0  0  0  0  0  0  0
    2.8321    1.9496   -2.5013 H   0  0  0  0  0  0  0  0  0  0  0  0
    2.5631    1.7248   -4.9605 H   0  0  0  0  0  0  0  0  0  0  0  0
    2.5375   -0.5307   -6.0025 H   0  0  0  0  0  0  0  0  0  0  0  0
    2.7937   -2.5534   -4.5809 H   0  0  0  0  0  0  0  0  0  0  0  0
    3.0705   -2.3255   -2.1360 H   0  0  0  0  0  0  0  0  0  0  0  0
    4.8800    2.1813    0.5747 H   0  0  0  0  0  0  0  0  0  0  0  0
    7.3214    2.5536    0.4857 H   0  0  0  0  0  0  0  0  0  0  0  0
    8.7997    0.8618   -0.5794 H   0  0  0  0  0  0  0  0  0  0  0  0
    7.8034   -1.2016   -1.5453 H   0  0  0  0  0  0  0  0  0  0  0  0
    5.3745   -1.5725   -1.4374 H   0  0  0  0  0  0  0  0  0  0  0  0
  1  2  2  0  0  0  0
  1  6  1  0  0  0  0
  1 31  1  0  0  0  0
  2  3  1  0  0  0  0
  2 32  1  0  0  0  0
  3  4  2  0  0  0  0
  3 33  1  0  0  0  0
  4  5  1  0  0  0  0
  4  7  1  0  0  0  0
  5  6  2  0  0  0  0
  5 34  1  0  0  0  0
  6 35  1  0  0  0  0
  7 25  1  0  0  0  0
  7 19  1  0  0  0  0
  7  8  2  0  0  0  0
  8  9  1  0  0  0  0
  9 10  1  0  0  0  0
  9 36  1  0  0  0  0
  9 37  1  0  0  0  0
 10 11  1  0  0  0  0
 10 14  1  0  0  0  0
 11 12  2  0  0  0  0
 12 13  1  0  0  0  0
 13 18  1  0  0  0  0
 13 14  2  0  0  0  0
 14 15  1  0  0  0  0
 15 16  2  0  0  0  0
 15 38  1  0  0  0  0
 16 17  1  0  0  0  0
 16 39  1  0  0  0  0
 17 18  2  0  0  0  0
 17 40  1  0  0  0  0
 18 41  1  0  0  0  0
 19 20  2  0  0  0  0
 19 24  1  0  0  0  0
 20 21  1  0  0  0  0
 20 42  1  0  0  0  0
 21 22  2  0  0  0  0
 21 43  1  0  0  0  0
 22 23  1  0  0  0  0
 22 44  1  0  0  0  0
 23 24  2  0  0  0  0
 23 45  1  0  0  0  0
 24 46  1  0  0  0  0
 25 26  2  0  0  0  0
 25 30  1  0  0  0  0
 26 27  1  0  0  0  0
 26 47  1  0  0  0  0
 27 28  2  0  0  0  0
 27 48  1  0  0  0  0
 28 29  1  0  0  0  0
 28 49  1  0  0  0  0
 29 30  2  0  0  0  0
 29 50  1  0  0  0  0
 30 51  1  0  0  0  0
M  END
$$$$