39891 563677
 OpenBabel01211413153D

 27 27  0  0  0  0  0  0  0  0999 V2000
    2.3894   -1.9882    0.6592 N   0  0  0  0  0  0  0  0  0  0  0  0
    2.2677   -2.0896    1.9389 C   0  0  0  0  0  0  0  0  0  0  0  0
    1.1404   -1.7024    2.6026 N   0  0  0  0  0  0  0  0  0  0  0  0
   -0.0187   -1.1479    2.1681 C   0  0  0  0  0  0  0  0  0  0  0  0
   -0.3448   -0.8896    0.9507 N   0  0  0  0  0  0  0  0  0  0  0  0
   -0.8971   -0.8567    3.1564 N   0  0  0  0  0  0  0  0  0  0  0  0
    3.2183   -2.5665    2.7893 N   0  0  0  0  0  0  0  0  0  0  0  0
    4.5166   -3.0645    2.3820 C   0  0  0  0  0  0  0  0  0  0  0  0
    5.3039   -3.4752    3.6035 C   0  0  0  0  0  0  0  0  0  0  0  0
    5.6105   -2.5359    4.6013 C   0  0  0  0  0  0  0  0  0  0  0  0
    6.3270   -2.9146    5.7372 C   0  0  0  0  0  0  0  0  0  0  0  0
    6.7520   -4.2331    5.8851 C   0  0  0  0  0  0  0  0  0  0  0  0
    6.4618   -5.1734    4.8980 C   0  0  0  0  0  0  0  0  0  0  0  0
    5.7406   -4.7981    3.7627 C   0  0  0  0  0  0  0  0  0  0  0  0
    3.3056   -2.3134    0.3564 H   0  0  0  0  0  0  0  0  0  0  0  0
    1.2909   -1.5349    3.5847 H   0  0  0  0  0  0  0  0  0  0  0  0
    0.4750   -1.1831    0.3832 H   0  0  0  0  0  0  0  0  0  0  0  0
   -1.1272   -1.6580    3.7302 H   0  0  0  0  0  0  0  0  0  0  0  0
   -1.7477   -0.5049    2.7210 H   0  0  0  0  0  0  0  0  0  0  0  0
    2.8513   -3.0730    3.5880 H   0  0  0  0  0  0  0  0  0  0  0  0
    5.0766   -2.2911    1.8431 H   0  0  0  0  0  0  0  0  0  0  0  0
    4.3899   -3.9181    1.7060 H   0  0  0  0  0  0  0  0  0  0  0  0
    5.2856   -1.5021    4.4964 H   0  0  0  0  0  0  0  0  0  0  0  0
    6.5549   -2.1804    6.5059 H   0  0  0  0  0  0  0  0  0  0  0  0
    7.3126   -4.5276    6.7686 H   0  0  0  0  0  0  0  0  0  0  0  0
    6.7987   -6.2008    5.0128 H   0  0  0  0  0  0  0  0  0  0  0  0
    5.5244   -5.5483    3.0048 H   0  0  0  0  0  0  0  0  0  0  0  0
  1  2  2  0  0  0  0
  1 15  1  0  0  0  0
  2  7  1  0  0  0  0
  2  3  1  0  0  0  0
  3  4  1  0  0  0  0
  3 16  1  0  0  0  0
  4  6  1  0  0  0  0
  4  5  2  0  0  0  0
  5 17  1  0  0  0  0
  6 18  1  0  0  0  0
  6 19  1  0  0  0  0
  7  8  1  0  0  0  0
  7 20  1  0  0  0  0
  8  9  1  0  0  0  0
  8 21  1  0  0  0  0
  8 22  1  0  0  0  0
  9 10  2  0  0  0  0
  9 14  1  0  0  0  0
 10 11  1  0  0  0  0
 10 23  1  0  0  0  0
 11 12  2  0  0  0  0
 11 24  1  0  0  0  0
 12 13  1  0  0  0  0
 12 25  1  0  0  0  0
 13 14  2  0  0  0  0
 13 26  1  0  0  0  0
 14 27  1  0  0  0  0
M  END
$$$$