27253674 27253673
 OpenBabel01211414053D

 49 51  0  0  1  0  0  0  0  0999 V2000
    8.1069   -3.9706   -5.7287 C   0  0  0  0  0  0  0  0  0  0  0  0
    8.0347   -3.6020   -4.2743 C   0  0  0  0  0  0  0  0  0  0  0  0
    7.2230   -4.1981   -3.4452 C   0  0  0  0  0  0  0  0  0  0  0  0
    6.4123   -4.7897   -2.6089 C   0  0  0  0  0  0  0  0  0  0  0  0
    4.7751   -4.1670   -2.4691 P   0  0  3  0  0  0  0  0  0  0  0  0
    3.6774   -4.8963   -1.7336 O   0  0  0  0  0  0  0  0  0  0  0  0
    4.9948   -2.7213   -1.7372 O   0  0  0  0  0  0  0  0  0  0  0  0
    4.0216   -1.8042   -2.2469 C   0  0  2  0  0  0  0  0  0  0  0  0
    3.0973   -1.9962   -1.6869 H   0  0  0  0  0  0  0  0  0  0  0  0
    3.8189   -2.1445   -3.7591 C   0  0  1  0  0  0  0  0  0  0  0  0
    4.5090   -1.5572   -4.3762 H   0  0  0  0  0  0  0  0  0  0  0  0
    4.2311   -3.5497   -3.9098 N   0  0  0  0  0  0  0  0  0  0  0  0
    3.4886   -4.3774   -4.8278 C   0  0  0  0  0  0  0  0  0  0  0  0
    2.3953   -1.7859   -4.1919 C   0  0  0  0  0  0  0  0  0  0  0  0
    4.5026   -0.3934   -1.9943 C   0  0  0  0  0  0  0  0  0  0  0  0
    5.7448    0.0468   -2.4796 C   0  0  0  0  0  0  0  0  0  0  0  0
    6.1764    1.3545   -2.2532 C   0  0  0  0  0  0  0  0  0  0  0  0
    5.3772    2.2361   -1.5293 C   0  0  0  0  0  0  0  0  0  0  0  0
    4.1479    1.8102   -1.0302 C   0  0  0  0  0  0  0  0  0  0  0  0
    3.7117    0.5038   -1.2616 C   0  0  0  0  0  0  0  0  0  0  0  0
    6.8572   -5.9385   -1.7930 C   0  0  0  0  0  0  0  0  0  0  0  0
    6.3319   -6.1733   -0.5144 C   0  0  0  0  0  0  0  0  0  0  0  0
    6.7743   -7.2528    0.2578 C   0  0  0  0  0  0  0  0  0  0  0  0
    7.7524   -8.1127   -0.2338 C   0  0  0  0  0  0  0  0  0  0  0  0
    8.2890   -7.8957   -1.4986 C   0  0  0  0  0  0  0  0  0  0  0  0
    7.8451   -6.8183   -2.2702 C   0  0  0  0  0  0  0  0  0  0  0  0
    8.9793   -2.5219   -3.8313 C   0  0  0  0  0  0  0  0  0  0  0  0
    7.9067   -3.0955   -6.3542 H   0  0  0  0  0  0  0  0  0  0  0  0
    7.3736   -4.7426   -5.9861 H   0  0  0  0  0  0  0  0  0  0  0  0
    9.1016   -4.3560   -5.9730 H   0  0  0  0  0  0  0  0  0  0  0  0
    3.9946   -5.3404   -4.9552 H   0  0  0  0  0  0  0  0  0  0  0  0
    3.4346   -3.9211   -5.8215 H   0  0  0  0  0  0  0  0  0  0  0  0
    2.4756   -4.5817   -4.4685 H   0  0  0  0  0  0  0  0  0  0  0  0
    1.6499   -2.3799   -3.6519 H   0  0  0  0  0  0  0  0  0  0  0  0
    2.2515   -1.9478   -5.2650 H   0  0  0  0  0  0  0  0  0  0  0  0
    2.1862   -0.7292   -3.9937 H   0  0  0  0  0  0  0  0  0  0  0  0
    6.3880   -0.6354   -3.0321 H   0  0  0  0  0  0  0  0  0  0  0  0
    7.1394    1.6820   -2.6357 H   0  0  0  0  0  0  0  0  0  0  0  0
    5.7161    3.2524   -1.3466 H   0  0  0  0  0  0  0  0  0  0  0  0
    3.5298    2.4948   -0.4550 H   0  0  0  0  0  0  0  0  0  0  0  0
    2.7520    0.1900   -0.8566 H   0  0  0  0  0  0  0  0  0  0  0  0
    5.5784   -5.5166   -0.0839 H   0  0  0  0  0  0  0  0  0  0  0  0
    6.3541   -7.4162    1.2471 H   0  0  0  0  0  0  0  0  0  0  0  0
    8.0970   -8.9484    0.3693 H   0  0  0  0  0  0  0  0  0  0  0  0
    9.0548   -8.5615   -1.8875 H   0  0  0  0  0  0  0  0  0  0  0  0
    8.2834   -6.6760   -3.2561 H   0  0  0  0  0  0  0  0  0  0  0  0
   10.0159   -2.8365   -3.9858 H   0  0  0  0  0  0  0  0  0  0  0  0
    8.8532   -2.2859   -2.7686 H   0  0  0  0  0  0  0  0  0  0  0  0
    8.8030   -1.6043   -4.4009 H   0  0  0  0  0  0  0  0  0  0  0  0
  1  2  1  0  0  0  0
  1 28  1  0  0  0  0
  1 29  1  0  0  0  0
  1 30  1  0  0  0  0
  2 27  1  0  0  0  0
  2  3  2  0  0  0  0
  3  4  2  0  0  0  0
  4 21  1  0  0  0  0
  4  5  1  0  0  0  0
  5 12  1  0  0  0  0
  5  7  1  0  0  0  0
  5  6  2  0  0  0  0
  7  8  1  0  0  0  0
  8 10  1  0  0  0  0
  8  9  1  1  0  0  0
  8 15  1  0  0  0  0
 10 12  1  0  0  0  0
 10 14  1  0  0  0  0
 10 11  1  6  0  0  0
 12 13  1  0  0  0  0
 13 31  1  0  0  0  0
 13 32  1  0  0  0  0
 13 33  1  0  0  0  0
 14 34  1  0  0  0  0
 14 35  1  0  0  0  0
 14 36  1  0  0  0  0
 15 16  2  0  0  0  0
 15 20  1  0  0  0  0
 16 17  1  0  0  0  0
 16 37  1  0  0  0  0
 17 18  2  0  0  0  0
 17 38  1  0  0  0  0
 18 19  1  0  0  0  0
 18 39  1  0  0  0  0
 19 20  2  0  0  0  0
 19 40  1  0  0  0  0
 20 41  1  0  0  0  0
 21 22  2  0  0  0  0
 21 26  1  0  0  0  0
 22 23  1  0  0  0  0
 22 42  1  0  0  0  0
 23 24  2  0  0  0  0
 23 43  1  0  0  0  0
 24 25  1  0  0  0  0
 24 44  1  0  0  0  0
 25 26  2  0  0  0  0
 25 45  1  0  0  0  0
 26 46  1  0  0  0  0
 27 47  1  0  0  0  0
 27 48  1  0  0  0  0
 27 49  1  0  0  0  0
M  END
$$$$