566852 566851
 OpenBabel01211413263D

 59 61  0  0  0  0  0  0  0  0999 V2000
    2.4338   -2.6036    0.1582 O   0  0  0  0  0  0  0  0  0  0  0  0
    1.6263   -2.1373   -0.6496 C   0  0  0  0  0  0  0  0  0  0  0  0
    1.1822   -2.9911   -1.7988 C   0  0  0  0  0  0  0  0  0  0  0  0
    0.2511   -2.5861   -2.7529 C   0  0  0  0  0  0  0  0  0  0  0  0
   -0.1075   -3.4437   -3.8100 C   0  0  0  0  0  0  0  0  0  0  0  0
    0.4350   -4.7338   -3.9651 C   0  0  0  0  0  0  0  0  0  0  0  0
    1.3622   -5.1205   -2.9784 C   0  0  0  0  0  0  0  0  0  0  0  0
    1.7334   -4.2692   -1.9233 C   0  0  0  0  0  0  0  0  0  0  0  0
    0.0574   -5.6268   -5.1097 C   0  0  0  0  0  0  0  0  0  0  0  0
    0.7357   -6.8341   -5.3809 C   0  0  0  0  0  0  0  0  0  0  0  0
    0.3942   -7.6610   -6.4603 C   0  0  0  0  0  0  0  0  0  0  0  0
   -0.6376   -7.3023   -7.3174 C   0  0  0  0  0  0  0  0  0  0  0  0
   -1.3315   -6.1238   -7.0854 C   0  0  0  0  0  0  0  0  0  0  0  0
   -0.9929   -5.3074   -5.9970 C   0  0  0  0  0  0  0  0  0  0  0  0
    1.1316   -0.7108   -0.4950 C   0  0  0  0  0  0  0  0  0  0  0  0
    0.7119   -0.4734    0.9514 C   0  0  0  0  0  0  0  0  0  0  0  0
   -0.0300    1.1747    1.2209 S   0  0  0  0  0  0  0  0  0  0  0  0
    1.4249    2.2255    0.8995 C   0  0  0  0  0  0  0  0  0  0  0  0
    1.1921    3.6866    1.2757 C   0  0  0  0  0  0  0  0  0  0  0  0
    0.4331    4.5447    0.4303 C   0  0  0  0  0  0  0  0  0  0  0  0
   -0.1993    4.0342   -0.8469 C   0  0  0  0  0  0  0  0  0  0  0  0
    0.2381    5.9066    0.7918 C   0  0  0  0  0  0  0  0  0  0  0  0
   -0.6274    6.8218   -0.0506 C   0  0  0  0  0  0  0  0  0  0  0  0
    0.8433    6.4251    1.9658 C   0  0  0  0  0  0  0  0  0  0  0  0
    1.6703    5.5945    2.7597 C   0  0  0  0  0  0  0  0  0  0  0  0
    1.7642    4.2085    2.4711 C   0  0  0  0  0  0  0  0  0  0  0  0
    2.5036    3.2886    3.4208 C   0  0  0  0  0  0  0  0  0  0  0  0
    2.4283    6.1745    3.9344 C   0  0  0  0  0  0  0  0  0  0  0  0
    0.6513    7.8784    2.3490 C   0  0  0  0  0  0  0  0  0  0  0  0
   -0.2286   -1.6148   -2.7240 H   0  0  0  0  0  0  0  0  0  0  0  0
   -0.8296   -3.0489   -4.5203 H   0  0  0  0  0  0  0  0  0  0  0  0
    1.8311   -6.1008   -2.9943 H   0  0  0  0  0  0  0  0  0  0  0  0
    2.4644   -4.6242   -1.1979 H   0  0  0  0  0  0  0  0  0  0  0  0
    1.5644   -7.1678   -4.7612 H   0  0  0  0  0  0  0  0  0  0  0  0
    0.9445   -8.5826   -6.6298 H   0  0  0  0  0  0  0  0  0  0  0  0
   -0.8987   -7.9374   -8.1593 H   0  0  0  0  0  0  0  0  0  0  0  0
   -2.1423   -5.8312   -7.7488 H   0  0  0  0  0  0  0  0  0  0  0  0
   -1.5880   -4.4091   -5.8701 H   0  0  0  0  0  0  0  0  0  0  0  0
    0.2909   -0.4890   -1.1541 H   0  0  0  0  0  0  0  0  0  0  0  0
    1.9617   -0.0558   -0.7849 H   0  0  0  0  0  0  0  0  0  0  0  0
    1.5533   -0.5984    1.6424 H   0  0  0  0  0  0  0  0  0  0  0  0
   -0.0438   -1.2141    1.2382 H   0  0  0  0  0  0  0  0  0  0  0  0
    1.7154    2.1683   -0.1542 H   0  0  0  0  0  0  0  0  0  0  0  0
    2.2782    1.8081    1.4394 H   0  0  0  0  0  0  0  0  0  0  0  0
    0.0673    3.0098   -1.1078 H   0  0  0  0  0  0  0  0  0  0  0  0
    0.1276    4.6437   -1.6970 H   0  0  0  0  0  0  0  0  0  0  0  0
   -1.2908    4.0682   -0.7625 H   0  0  0  0  0  0  0  0  0  0  0  0
   -0.0727    7.7286   -0.3155 H   0  0  0  0  0  0  0  0  0  0  0  0
   -1.5321    7.0906    0.5048 H   0  0  0  0  0  0  0  0  0  0  0  0
   -0.9572    6.3832   -0.9941 H   0  0  0  0  0  0  0  0  0  0  0  0
    1.9491    2.3554    3.5676 H   0  0  0  0  0  0  0  0  0  0  0  0
    2.6068    3.7090    4.4246 H   0  0  0  0  0  0  0  0  0  0  0  0
    3.5031    3.0688    3.0322 H   0  0  0  0  0  0  0  0  0  0  0  0
    3.4231    5.7205    4.0195 H   0  0  0  0  0  0  0  0  0  0  0  0
    1.8700    6.0152    4.8622 H   0  0  0  0  0  0  0  0  0  0  0  0
    2.6247    7.2439    3.8182 H   0  0  0  0  0  0  0  0  0  0  0  0
    0.5605    7.9894    3.4349 H   0  0  0  0  0  0  0  0  0  0  0  0
   -0.2702    8.3069    1.9470 H   0  0  0  0  0  0  0  0  0  0  0  0
    1.4967    8.4731    1.9898 H   0  0  0  0  0  0  0  0  0  0  0  0
  1  2  2  0  0  0  0
  2 15  1  0  0  0  0
  2  3  1  0  0  0  0
  3  4  2  0  0  0  0
  3  8  1  0  0  0  0
  4  5  1  0  0  0  0
  4 30  1  0  0  0  0
  5  6  2  0  0  0  0
  5 31  1  0  0  0  0
  6  7  1  0  0  0  0
  6  9  1  0  0  0  0
  7  8  2  0  0  0  0
  7 32  1  0  0  0  0
  8 33  1  0  0  0  0
  9 10  2  0  0  0  0
  9 14  1  0  0  0  0
 10 11  1  0  0  0  0
 10 34  1  0  0  0  0
 11 12  2  0  0  0  0
 11 35  1  0  0  0  0
 12 13  1  0  0  0  0
 12 36  1  0  0  0  0
 13 14  2  0  0  0  0
 13 37  1  0  0  0  0
 14 38  1  0  0  0  0
 15 16  1  0  0  0  0
 15 39  1  0  0  0  0
 15 40  1  0  0  0  0
 16 17  1  0  0  0  0
 16 41  1  0  0  0  0
 16 42  1  0  0  0  0
 17 18  1  0  0  0  0
 18 19  1  0  0  0  0
 18 43  1  0  0  0  0
 18 44  1  0  0  0  0
 19 26  1  0  0  0  0
 19 20  2  0  0  0  0
 20 22  1  0  0  0  0
 20 21  1  0  0  0  0
 21 45  1  0  0  0  0
 21 46  1  0  0  0  0
 21 47  1  0  0  0  0
 22 24  2  0  0  0  0
 22 23  1  0  0  0  0
 23 48  1  0  0  0  0
 23 49  1  0  0  0  0
 23 50  1  0  0  0  0
 24 25  1  0  0  0  0
 24 29  1  0  0  0  0
 25 26  2  0  0  0  0
 25 28  1  0  0  0  0
 26 27  1  0  0  0  0
 27 51  1  0  0  0  0
 27 52  1  0  0  0  0
 27 53  1  0  0  0  0
 28 54  1  0  0  0  0
 28 55  1  0  0  0  0
 28 56  1  0  0  0  0
 29 57  1  0  0  0  0
 29 58  1  0  0  0  0
 29 59  1  0  0  0  0
M  END
$$$$