24639452 24639451
 OpenBabel01211414023D

 58 60  0  0  1  0  0  0  0  0999 V2000
    5.2324    3.6244   -2.9299 C   0  0  0  0  0  0  0  0  0  0  0  0
    4.3783    2.7822   -1.9906 C   0  0  0  0  0  0  0  0  0  0  0  0
    4.6574    3.0884   -0.5156 C   0  0  3  0  0  0  0  0  0  0  0  0
    4.2967    4.5270   -0.1104 C   0  0  0  0  0  0  0  0  0  0  0  0
    4.1827    4.5484    1.4122 C   0  0  0  0  0  0  0  0  0  0  0  0
    3.2257    3.4121    1.7938 C   0  0  3  0  0  0  0  0  0  0  0  0
    3.6120    2.0107    0.6153 P   0  0  3  0  0  0  0  0  0  0  0  0
    4.8268    0.9425    1.5074 C   0  0  0  0  0  0  0  0  0  0  0  0
    6.1091    1.4408    1.8213 C   0  0  0  0  0  0  0  0  0  0  0  0
    7.0787    0.6509    2.4388 C   0  0  0  0  0  0  0  0  0  0  0  0
    6.7880   -0.6613    2.7668 C   0  0  0  0  0  0  0  0  0  0  0  0
    5.5183   -1.1733    2.5036 C   0  0  0  0  0  0  0  0  0  0  0  0
    4.5116   -0.3980    1.8888 C   0  0  0  0  0  0  0  0  0  0  0  0
    2.8246   -1.0981    1.6824 P   0  0  3  0  0  0  0  0  0  0  0  0
    2.9244   -2.3827    0.3164 C   0  0  3  0  0  0  0  0  0  0  0  0
    4.3301   -2.7143   -0.1986 C   0  0  0  0  0  0  0  0  0  0  0  0
    4.3271   -3.7024   -1.3608 C   0  0  0  0  0  0  0  0  0  0  0  0
    2.1898   -3.5888    0.9363 C   0  0  0  0  0  0  0  0  0  0  0  0
    2.6773   -3.7250    2.3784 C   0  0  0  0  0  0  0  0  0  0  0  0
    2.6236   -2.3404    3.0329 C   0  0  3  0  0  0  0  0  0  0  0  0
    1.2577   -1.9797    3.5535 C   0  0  0  0  0  0  0  0  0  0  0  0
    1.0247   -1.6227    4.8262 C   0  0  0  0  0  0  0  0  0  0  0  0
    3.2205    3.0506    3.2779 C   0  0  0  0  0  0  0  0  0  0  0  0
    2.7652    4.2076    4.1591 C   0  0  0  0  0  0  0  0  0  0  0  0
    5.0720    3.3134   -3.9669 H   0  0  0  0  0  0  0  0  0  0  0  0
    6.2973    3.5090   -2.7031 H   0  0  0  0  0  0  0  0  0  0  0  0
    4.9775    4.6861   -2.8570 H   0  0  0  0  0  0  0  0  0  0  0  0
    4.5878    1.7238   -2.1911 H   0  0  0  0  0  0  0  0  0  0  0  0
    3.3199    2.9432   -2.2303 H   0  0  0  0  0  0  0  0  0  0  0  0
    5.7231    2.9309   -0.3335 H   0  0  0  0  0  0  0  0  0  0  0  0
    3.3430    4.8365   -0.5584 H   0  0  0  0  0  0  0  0  0  0  0  0
    5.0600    5.2358   -0.4491 H   0  0  0  0  0  0  0  0  0  0  0  0
    5.1693    4.4151    1.8706 H   0  0  0  0  0  0  0  0  0  0  0  0
    3.7974    5.5170    1.7495 H   0  0  0  0  0  0  0  0  0  0  0  0
    2.2103    3.7286    1.5177 H   0  0  0  0  0  0  0  0  0  0  0  0
    6.3843    2.4670    1.6012 H   0  0  0  0  0  0  0  0  0  0  0  0
    8.0584    1.0662    2.6585 H   0  0  0  0  0  0  0  0  0  0  0  0
    7.5398   -1.2865    3.2401 H   0  0  0  0  0  0  0  0  0  0  0  0
    5.3359   -2.2049    2.7897 H   0  0  0  0  0  0  0  0  0  0  0  0
    2.3332   -2.0024   -0.5255 H   0  0  0  0  0  0  0  0  0  0  0  0
    4.9606   -3.1303    0.5937 H   0  0  0  0  0  0  0  0  0  0  0  0
    4.8176   -1.7962   -0.5486 H   0  0  0  0  0  0  0  0  0  0  0  0
    4.0230   -4.7026   -1.0388 H   0  0  0  0  0  0  0  0  0  0  0  0
    5.3351   -3.7892   -1.7800 H   0  0  0  0  0  0  0  0  0  0  0  0
    3.6547   -3.3744   -2.1591 H   0  0  0  0  0  0  0  0  0  0  0  0
    1.1056   -3.4111    0.9275 H   0  0  0  0  0  0  0  0  0  0  0  0
    2.3493   -4.5166    0.3801 H   0  0  0  0  0  0  0  0  0  0  0  0
    2.0767   -4.4597    2.9270 H   0  0  0  0  0  0  0  0  0  0  0  0
    3.7092   -4.0971    2.3793 H   0  0  0  0  0  0  0  0  0  0  0  0
    3.3601   -2.2635    3.8379 H   0  0  0  0  0  0  0  0  0  0  0  0
    0.4052   -2.0373    2.8775 H   0  0  0  0  0  0  0  0  0  0  0  0
    1.8258   -1.5535    5.5556 H   0  0  0  0  0  0  0  0  0  0  0  0
    0.0207   -1.3812    5.1600 H   0  0  0  0  0  0  0  0  0  0  0  0
    4.2156    2.7387    3.6131 H   0  0  0  0  0  0  0  0  0  0  0  0
    2.5485    2.2006    3.4493 H   0  0  0  0  0  0  0  0  0  0  0  0
    3.4758    5.0391    4.1225 H   0  0  0  0  0  0  0  0  0  0  0  0
    2.6905    3.8807    5.2010 H   0  0  0  0  0  0  0  0  0  0  0  0
    1.7831    4.5778    3.8486 H   0  0  0  0  0  0  0  0  0  0  0  0
  1  2  1  0  0  0  0
  1 25  1  0  0  0  0
  1 26  1  0  0  0  0
  1 27  1  0  0  0  0
  2  3  1  0  0  0  0
  2 28  1  0  0  0  0
  2 29  1  0  0  0  0
  3  7  1  0  0  0  0
  3  4  1  0  0  0  0
  3 30  1  0  0  0  0
  4  5  1  0  0  0  0
  4 31  1  0  0  0  0
  4 32  1  0  0  0  0
  5  6  1  0  0  0  0
  5 33  1  0  0  0  0
  5 34  1  0  0  0  0
  6  7  1  0  0  0  0
  6 23  1  0  0  0  0
  6 35  1  0  0  0  0
  7  8  1  0  0  0  0
  8  9  2  0  0  0  0
  8 13  1  0  0  0  0
  9 10  1  0  0  0  0
  9 36  1  0  0  0  0
 10 11  2  0  0  0  0
 10 37  1  0  0  0  0
 11 12  1  0  0  0  0
 11 38  1  0  0  0  0
 12 13  2  0  0  0  0
 12 39  1  0  0  0  0
 13 14  1  0  0  0  0
 14 20  1  0  0  0  0
 14 15  1  0  0  0  0
 15 18  1  0  0  0  0
 15 16  1  0  0  0  0
 15 40  1  0  0  0  0
 16 17  1  0  0  0  0
 16 41  1  0  0  0  0
 16 42  1  0  0  0  0
 17 43  1  0  0  0  0
 17 44  1  0  0  0  0
 17 45  1  0  0  0  0
 18 19  1  0  0  0  0
 18 46  1  0  0  0  0
 18 47  1  0  0  0  0
 19 20  1  0  0  0  0
 19 48  1  0  0  0  0
 19 49  1  0  0  0  0
 20 21  1  0  0  0  0
 20 50  1  0  0  0  0
 21 22  2  0  0  0  0
 21 51  1  0  0  0  0
 22 52  1  0  0  0  0
 22 53  1  0  0  0  0
 23 24  1  0  0  0  0
 23 54  1  0  0  0  0
 23 55  1  0  0  0  0
 24 56  1  0  0  0  0
 24 57  1  0  0  0  0
 24 58  1  0  0  0  0
M  END
$$$$