519547 519546
 OpenBabel01211413223D

 23 23  0  0  0  0  0  0  0  0999 V2000
    3.4023    2.0425    0.0527 O   0  0  0  0  0  0  0  0  0  0  0  0
    2.4548    1.8850   -0.7201 C   0  0  0  0  0  0  0  0  0  0  0  0
    1.8107    3.0959   -1.3015 C   0  0  0  0  0  0  0  0  0  0  0  0
    2.6007    4.2399   -1.4839 C   0  0  0  0  0  0  0  0  0  0  0  0
    2.0472    5.3997   -2.0281 C   0  0  0  0  0  0  0  0  0  0  0  0
    0.7005    5.4258   -2.3849 C   0  0  0  0  0  0  0  0  0  0  0  0
   -0.0952    4.2970   -2.1895 C   0  0  0  0  0  0  0  0  0  0  0  0
    0.4550    3.1333   -1.6442 C   0  0  0  0  0  0  0  0  0  0  0  0
    1.9876    0.5135   -1.1852 C   0  0  0  0  0  0  0  0  0  0  0  0
    2.2631   -0.7537    0.0922 S   0  0  0  0  0  0  0  0  0  0  0  0
    1.2511   -0.0551    1.3512 C   0  0  0  0  0  0  0  0  0  0  0  0
    0.2607    0.6128    1.0788 O   0  0  0  0  0  0  0  0  0  0  0  0
    1.7146   -0.3266    2.7520 C   0  0  0  0  0  0  0  0  0  0  0  0
    3.6519    4.2311   -1.2008 H   0  0  0  0  0  0  0  0  0  0  0  0
    2.6655    6.2831   -2.1668 H   0  0  0  0  0  0  0  0  0  0  0  0
    0.2668    6.3312   -2.8029 H   0  0  0  0  0  0  0  0  0  0  0  0
   -1.1510    4.3280   -2.4490 H   0  0  0  0  0  0  0  0  0  0  0  0
   -0.2041    2.2888   -1.4641 H   0  0  0  0  0  0  0  0  0  0  0  0
    2.5727    0.2440   -2.0703 H   0  0  0  0  0  0  0  0  0  0  0  0
    0.9334    0.4958   -1.4618 H   0  0  0  0  0  0  0  0  0  0  0  0
    2.5703    0.3121    2.9880 H   0  0  0  0  0  0  0  0  0  0  0  0
    1.9853   -1.3785    2.8775 H   0  0  0  0  0  0  0  0  0  0  0  0
    0.9018   -0.1025    3.4497 H   0  0  0  0  0  0  0  0  0  0  0  0
  1  2  2  0  0  0  0
  2  9  1  0  0  0  0
  2  3  1  0  0  0  0
  3  4  2  0  0  0  0
  3  8  1  0  0  0  0
  4  5  1  0  0  0  0
  4 14  1  0  0  0  0
  5  6  2  0  0  0  0
  5 15  1  0  0  0  0
  6  7  1  0  0  0  0
  6 16  1  0  0  0  0
  7  8  2  0  0  0  0
  7 17  1  0  0  0  0
  8 18  1  0  0  0  0
  9 10  1  0  0  0  0
  9 19  1  0  0  0  0
  9 20  1  0  0  0  0
 10 11  1  0  0  0  0
 11 13  1  0  0  0  0
 11 12  2  0  0  0  0
 13 21  1  0  0  0  0
 13 22  1  0  0  0  0
 13 23  1  0  0  0  0
M  END
$$$$