2252834 2252833
 OpenBabel01211413473D

 38 39  0  0  1  0  0  0  0  0999 V2000
    1.3566   -0.4420   -0.9205 C   0  0  0  0  0  0  0  0  0  0  0  0
    1.8917   -0.2176    0.2874 C   0  0  0  0  0  0  0  0  0  0  0  0
    2.9011   -1.0563    1.0402 C   0  0  3  0  0  0  0  0  0  0  0  0
    3.9047   -0.1785    1.5830 O   0  0  0  0  0  0  0  0  0  0  0  0
    4.8961    0.2327    0.6418 C   0  0  0  0  0  0  0  0  0  0  0  0
    5.6540   -0.9474   -0.0301 C   0  0  3  0  0  0  0  0  0  0  0  0
    4.5608   -1.7850   -0.7576 C   0  0  3  0  0  0  0  0  0  0  0  0
    3.5558   -2.2707    0.3195 C   0  0  3  0  0  0  0  0  0  0  0  0
    4.2662   -3.1293    1.3640 C   0  0  0  0  0  0  0  0  0  0  0  0
    5.5619   -2.9220    1.6634 C   0  0  0  0  0  0  0  0  0  0  0  0
    6.4195   -1.8642    0.9986 C   0  0  3  0  0  0  0  0  0  0  0  0
    7.1898   -1.0872    2.0743 C   0  0  0  0  0  0  0  0  0  0  0  0
    3.4487   -4.1901    2.0419 C   0  0  0  0  0  0  0  0  0  0  0  0
    5.0885   -2.9418   -1.6196 C   0  0  0  0  0  0  0  0  0  0  0  0
    6.6787   -0.3464   -1.0225 C   0  0  0  0  0  0  0  0  0  0  0  0
    6.0301    0.3985   -2.0469 O   0  0  0  0  0  0  0  0  0  0  0  0
    0.6369    0.2554   -1.3384 H   0  0  0  0  0  0  0  0  0  0  0  0
    1.6129   -1.3045   -1.5262 H   0  0  0  0  0  0  0  0  0  0  0  0
    1.5674    0.6717    0.8259 H   0  0  0  0  0  0  0  0  0  0  0  0
    2.3512   -1.4324    1.9127 H   0  0  0  0  0  0  0  0  0  0  0  0
    5.5941    0.8862    1.1766 H   0  0  0  0  0  0  0  0  0  0  0  0
    4.4130    0.8714   -0.1078 H   0  0  0  0  0  0  0  0  0  0  0  0
    4.0260   -1.1281   -1.4552 H   0  0  0  0  0  0  0  0  0  0  0  0
    2.7828   -2.8816   -0.1643 H   0  0  0  0  0  0  0  0  0  0  0  0
    6.0494   -3.5509    2.4056 H   0  0  0  0  0  0  0  0  0  0  0  0
    7.1745   -2.4294    0.4330 H   0  0  0  0  0  0  0  0  0  0  0  0
    6.5168   -0.5892    2.7798 H   0  0  0  0  0  0  0  0  0  0  0  0
    7.8467   -0.3332    1.6319 H   0  0  0  0  0  0  0  0  0  0  0  0
    7.8248   -1.7644    2.6570 H   0  0  0  0  0  0  0  0  0  0  0  0
    4.0347   -4.7537    2.7750 H   0  0  0  0  0  0  0  0  0  0  0  0
    3.0662   -4.9022    1.3039 H   0  0  0  0  0  0  0  0  0  0  0  0
    2.5994   -3.7447    2.5683 H   0  0  0  0  0  0  0  0  0  0  0  0
    5.6851   -2.5639   -2.4555 H   0  0  0  0  0  0  0  0  0  0  0  0
    4.2526   -3.5039   -2.0506 H   0  0  0  0  0  0  0  0  0  0  0  0
    5.7080   -3.6484   -1.0615 H   0  0  0  0  0  0  0  0  0  0  0  0
    7.2748   -1.1297   -1.5025 H   0  0  0  0  0  0  0  0  0  0  0  0
    7.3703    0.3308   -0.5104 H   0  0  0  0  0  0  0  0  0  0  0  0
    6.7227    0.7377   -2.6398 H   0  0  0  0  0  0  0  0  0  0  0  0
  1  2  2  0  0  0  0
  1 17  1  0  0  0  0
  1 18  1  0  0  0  0
  2  3  1  0  0  0  0
  2 19  1  0  0  0  0
  3  4  1  0  0  0  0
  3  8  1  0  0  0  0
  3 20  1  0  0  0  0
  4  5  1  0  0  0  0
  5  6  1  0  0  0  0
  5 21  1  0  0  0  0
  5 22  1  0  0  0  0
  6 11  1  0  0  0  0
  6 15  1  0  0  0  0
  6  7  1  0  0  0  0
  7  8  1  0  0  0  0
  7 14  1  0  0  0  0
  7 23  1  0  0  0  0
  8  9  1  0  0  0  0
  8 24  1  0  0  0  0
  9 10  2  0  0  0  0
  9 13  1  0  0  0  0
 10 11  1  0  0  0  0
 10 25  1  0  0  0  0
 11 12  1  0  0  0  0
 11 26  1  0  0  0  0
 12 27  1  0  0  0  0
 12 28  1  0  0  0  0
 12 29  1  0  0  0  0
 13 30  1  0  0  0  0
 13 31  1  0  0  0  0
 13 32  1  0  0  0  0
 14 33  1  0  0  0  0
 14 34  1  0  0  0  0
 14 35  1  0  0  0  0
 15 16  1  0  0  0  0
 15 36  1  0  0  0  0
 15 37  1  0  0  0  0
 16 38  1  0  0  0  0
M  END
$$$$