4383552 4383551
 OpenBabel01211413533D

 23 23  0  0  0  0  0  0  0  0999 V2000
    2.7645    0.4452    1.3749 O   0  0  0  0  0  0  0  0  0  0  0  0
    2.1994    0.0744    0.0847 N   0  0  0  0  0  0  0  0  0  0  0  0
    2.8598    0.9127   -0.9562 C   0  0  0  0  0  0  0  0  0  0  0  0
    2.2588    0.5548   -2.3603 C   0  0  0  0  0  0  0  0  0  0  0  0
    1.6855    1.4292   -3.0183 O   0  0  0  0  0  0  0  0  0  0  0  0
    2.4162   -0.8117   -2.8792 C   0  0  0  0  0  0  0  0  0  0  0  0
    2.5564   -2.0232   -2.2255 C   0  0  0  0  0  0  0  0  0  0  0  0
    2.6673   -3.1278   -3.1215 C   0  0  0  0  0  0  0  0  0  0  0  0
    2.6251   -2.7283   -4.4363 C   0  0  0  0  0  0  0  0  0  0  0  0
    2.4275   -1.0387   -4.5850 S   0  0  0  0  0  0  0  0  0  0  0  0
    2.5852    2.4048   -0.6648 C   0  0  0  0  0  0  0  0  0  0  0  0
    4.3811    0.6873   -0.9874 C   0  0  0  0  0  0  0  0  0  0  0  0
    3.0452   -0.4173    1.7397 H   0  0  0  0  0  0  0  0  0  0  0  0
    1.2264    0.3865    0.1821 H   0  0  0  0  0  0  0  0  0  0  0  0
    2.5600   -2.1349   -1.1475 H   0  0  0  0  0  0  0  0  0  0  0  0
    2.7699   -4.1606   -2.8148 H   0  0  0  0  0  0  0  0  0  0  0  0
    2.6907   -3.3479   -5.3206 H   0  0  0  0  0  0  0  0  0  0  0  0
    3.0342    2.7296    0.2806 H   0  0  0  0  0  0  0  0  0  0  0  0
    1.5087    2.6094   -0.6120 H   0  0  0  0  0  0  0  0  0  0  0  0
    2.9975    3.0441   -1.4551 H   0  0  0  0  0  0  0  0  0  0  0  0
    4.8614    1.0287   -0.0632 H   0  0  0  0  0  0  0  0  0  0  0  0
    4.8368    1.2389   -1.8177 H   0  0  0  0  0  0  0  0  0  0  0  0
    4.6409   -0.3673   -1.1204 H   0  0  0  0  0  0  0  0  0  0  0  0
  1  2  1  0  0  0  0
  1 13  1  0  0  0  0
  2  3  1  0  0  0  0
  2 14  1  0  0  0  0
  3 12  1  0  0  0  0
  3 11  1  0  0  0  0
  3  4  1  0  0  0  0
  4  6  1  0  0  0  0
  4  5  2  0  0  0  0
  6  7  2  0  0  0  0
  6 10  1  0  0  0  0
  7  8  1  0  0  0  0
  7 15  1  0  0  0  0
  8  9  2  0  0  0  0
  8 16  1  0  0  0  0
  9 10  1  0  0  0  0
  9 17  1  0  0  0  0
 11 18  1  0  0  0  0
 11 19  1  0  0  0  0
 11 20  1  0  0  0  0
 12 21  1  0  0  0  0
 12 22  1  0  0  0  0
 12 23  1  0  0  0  0
M  END
$$$$