26811883 26811882
 OpenBabel01211414053D

 41 44  0  0  0  0  0  0  0  0999 V2000
    2.2738   -0.3146   -2.3519 C   0  0  0  0  0  0  0  0  0  0  0  0
    3.6864   -0.1521   -2.2058 O   0  0  0  0  0  0  0  0  0  0  0  0
    4.4168   -1.1991   -2.6615 C   0  0  0  0  0  0  0  0  0  0  0  0
    3.9788   -2.2301   -3.1424 O   0  0  0  0  0  0  0  0  0  0  0  0
    5.8684   -0.8952   -2.5538 C   0  0  0  0  0  0  0  0  0  0  0  0
    6.3625    0.1029   -1.7020 C   0  0  0  0  0  0  0  0  0  0  0  0
    7.7338    0.3678   -1.6537 C   0  0  0  0  0  0  0  0  0  0  0  0
    8.6130   -0.3592   -2.4611 C   0  0  0  0  0  0  0  0  0  0  0  0
    8.1312   -1.3639   -3.3044 C   0  0  0  0  0  0  0  0  0  0  0  0
    6.7606   -1.6372   -3.3412 C   0  0  0  0  0  0  0  0  0  0  0  0
   10.0609   -0.0640   -2.4572 C   0  0  0  0  0  0  0  0  0  0  0  0
   10.5931    0.7080   -1.5654 N   0  0  0  0  0  0  0  0  0  0  0  0
   11.9814    0.9576   -1.6381 C   0  0  0  0  0  0  0  0  0  0  0  0
   12.9169   -0.0990   -1.7596 C   0  0  0  0  0  0  0  0  0  0  0  0
   14.3074    0.1179   -1.8155 C   0  0  0  0  0  0  0  0  0  0  0  0
   14.7254    1.4361   -1.7196 C   0  0  0  0  0  0  0  0  0  0  0  0
   13.8176    2.4638   -1.5701 C   0  0  0  0  0  0  0  0  0  0  0  0
   12.4568    2.2881   -1.5203 C   0  0  0  0  0  0  0  0  0  0  0  0
   11.6954    3.4648   -1.3465 C   0  0  0  0  0  0  0  0  0  0  0  0
   12.3241    4.7211   -1.2280 C   0  0  0  0  0  0  0  0  0  0  0  0
   13.7214    4.8571   -1.2809 C   0  0  0  0  0  0  0  0  0  0  0  0
   14.4472    3.6872   -1.4586 C   0  0  0  0  0  0  0  0  0  0  0  0
   15.9247    3.5146   -1.5387 C   0  0  0  0  0  0  0  0  0  0  0  0
   16.1147    1.9743   -1.7260 C   0  0  0  0  0  0  0  0  0  0  0  0
    1.8032    0.6585   -2.1822 H   0  0  0  0  0  0  0  0  0  0  0  0
    1.9020   -1.0193   -1.6032 H   0  0  0  0  0  0  0  0  0  0  0  0
    2.0125   -0.6475   -3.3615 H   0  0  0  0  0  0  0  0  0  0  0  0
    5.6911    0.6840   -1.0742 H   0  0  0  0  0  0  0  0  0  0  0  0
    8.1105    1.1466   -0.9947 H   0  0  0  0  0  0  0  0  0  0  0  0
    8.8069   -1.9417   -3.9309 H   0  0  0  0  0  0  0  0  0  0  0  0
    6.3867   -2.4234   -3.9970 H   0  0  0  0  0  0  0  0  0  0  0  0
   10.6598   -0.5351   -3.2585 H   0  0  0  0  0  0  0  0  0  0  0  0
   12.5580   -1.1253   -1.8000 H   0  0  0  0  0  0  0  0  0  0  0  0
   15.0137   -0.6983   -1.9135 H   0  0  0  0  0  0  0  0  0  0  0  0
   10.6112    3.3985   -1.2927 H   0  0  0  0  0  0  0  0  0  0  0  0
   11.7097    5.6079   -1.0860 H   0  0  0  0  0  0  0  0  0  0  0  0
   14.2091    5.8200   -1.1838 H   0  0  0  0  0  0  0  0  0  0  0  0
   16.3331    4.0681   -2.3903 H   0  0  0  0  0  0  0  0  0  0  0  0
   16.4041    3.8593   -0.6166 H   0  0  0  0  0  0  0  0  0  0  0  0
   16.6086    1.7531   -2.6775 H   0  0  0  0  0  0  0  0  0  0  0  0
   16.6989    1.5475   -0.9044 H   0  0  0  0  0  0  0  0  0  0  0  0
  1  2  1  0  0  0  0
  1 25  1  0  0  0  0
  1 26  1  0  0  0  0
  1 27  1  0  0  0  0
  2  3  1  0  0  0  0
  3  5  1  0  0  0  0
  3  4  2  0  0  0  0
  5  6  2  0  0  0  0
  5 10  1  0  0  0  0
  6  7  1  0  0  0  0
  6 28  1  0  0  0  0
  7  8  2  0  0  0  0
  7 29  1  0  0  0  0
  8  9  1  0  0  0  0
  8 11  1  0  0  0  0
  9 10  2  0  0  0  0
  9 30  1  0  0  0  0
 10 31  1  0  0  0  0
 11 12  2  0  0  0  0
 11 32  1  0  0  0  0
 12 13  1  0  0  0  0
 13 14  2  0  0  0  0
 13 18  1  0  0  0  0
 14 15  1  0  0  0  0
 14 33  1  0  0  0  0
 15 16  2  0  0  0  0
 15 34  1  0  0  0  0
 16 24  1  0  0  0  0
 16 17  1  0  0  0  0
 17 22  1  0  0  0  0
 17 18  2  0  0  0  0
 18 19  1  0  0  0  0
 19 20  2  0  0  0  0
 19 35  1  0  0  0  0
 20 21  1  0  0  0  0
 20 36  1  0  0  0  0
 21 22  2  0  0  0  0
 21 37  1  0  0  0  0
 22 23  1  0  0  0  0
 23 24  1  0  0  0  0
 23 38  1  0  0  0  0
 23 39  1  0  0  0  0
 24 40  1  0  0  0  0
 24 41  1  0  0  0  0
M  END
$$$$