25837189 25837188
 OpenBabel01211414033D

 26 28  0  0  1  0  0  0  0  0999 V2000
    3.0226    2.6016    1.9968 N   0  0  0  0  0  0  0  0  0  0  0  0
    3.4500    1.7319    0.9058 C   0  0  0  0  0  0  0  0  0  0  0  0
    3.1280    0.2653    1.2023 C   0  0  3  0  0  0  0  0  0  0  0  0
    3.5815   -0.6820    0.0230 C   0  0  0  0  0  0  0  0  0  0  0  0
    2.2793   -1.4594   -0.3177 C   0  0  2  0  0  0  0  0  0  0  0  0
    2.2652   -1.9875   -1.2721 H   0  0  0  0  0  0  0  0  0  0  0  0
    1.2776   -0.3447   -0.1439 C   0  0  0  0  0  0  0  0  0  0  0  0
    1.5978   -0.0550    1.3060 C   0  0  2  0  0  0  0  0  0  0  0  0
    0.9607    0.6701    1.8142 H   0  0  0  0  0  0  0  0  0  0  0  0
    1.5342   -1.4750    1.8734 C   0  0  0  0  0  0  0  0  0  0  0  0
    1.9535   -2.3129    0.9039 C   0  0  0  0  0  0  0  0  0  0  0  0
   -0.1203   -0.3828   -0.7038 C   0  0  0  0  0  0  0  0  0  0  0  0
    0.8675    0.6560   -1.1892 C   0  0  0  0  0  0  0  0  0  0  0  0
    3.5073    2.3383    2.8543 H   0  0  0  0  0  0  0  0  0  0  0  0
    3.3053    3.5597    1.7942 H   0  0  0  0  0  0  0  0  0  0  0  0
    4.5311    1.8451    0.7662 H   0  0  0  0  0  0  0  0  0  0  0  0
    2.9727    2.0653   -0.0199 H   0  0  0  0  0  0  0  0  0  0  0  0
    3.6482   -0.0268    2.1259 H   0  0  0  0  0  0  0  0  0  0  0  0
    4.3964   -1.3452    0.3326 H   0  0  0  0  0  0  0  0  0  0  0  0
    3.9169   -0.0990   -0.8423 H   0  0  0  0  0  0  0  0  0  0  0  0
    1.2345   -1.7349    2.8760 H   0  0  0  0  0  0  0  0  0  0  0  0
    2.0549   -3.3844    0.9685 H   0  0  0  0  0  0  0  0  0  0  0  0
   -0.9341   -0.0511   -0.0691 H   0  0  0  0  0  0  0  0  0  0  0  0
   -0.3813   -1.1901   -1.3781 H   0  0  0  0  0  0  0  0  0  0  0  0
    1.2643    0.5454   -2.1912 H   0  0  0  0  0  0  0  0  0  0  0  0
    0.6979    1.6822   -0.8841 H   0  0  0  0  0  0  0  0  0  0  0  0
  1  2  1  0  0  0  0
  1 14  1  0  0  0  0
  1 15  1  0  0  0  0
  2  3  1  0  0  0  0
  2 16  1  0  0  0  0
  2 17  1  0  0  0  0
  3  4  1  0  0  0  0
  3  8  1  0  0  0  0
  3 18  1  0  0  0  0
  4  5  1  0  0  0  0
  4 19  1  0  0  0  0
  4 20  1  0  0  0  0
  5 11  1  0  0  0  0
  5  7  1  0  0  0  0
  5  6  1  6  0  0  0
  7  8  1  0  0  0  0
  7 13  1  0  0  0  0
  7 12  1  0  0  0  0
  8 10  1  0  0  0  0
  8  9  1  6  0  0  0
 10 11  2  0  0  0  0
 10 21  1  0  0  0  0
 11 22  1  0  0  0  0
 12 13  1  0  0  0  0
 12 23  1  0  0  0  0
 12 24  1  0  0  0  0
 13 25  1  0  0  0  0
 13 26  1  0  0  0  0
M  END
$$$$