713914 713913
 OpenBabel01211413323D

 18 17  0  0  0  0  0  0  0  0999 V2000
    5.2485    0.0432    0.8232 C   0  0  0  0  0  0  0  0  0  0  0  0
    5.0513   -1.7298    1.1363 S   0  0  0  0  0  0  0  0  0  0  0  0
    6.9882   -2.4199    1.0706 S   0  0  0  0  0  0  0  0  0  0  0  0
    7.6007   -2.3972    2.8239 C   0  0  0  0  0  0  0  0  0  0  0  0
    8.9647   -3.0840    2.7903 C   0  0  0  0  0  0  0  0  0  0  0  0
    9.9771   -2.6566    3.3402 O   0  0  0  0  0  0  0  0  0  0  0  0
    7.7378   -0.9651    3.3414 C   0  0  0  0  0  0  0  0  0  0  0  0
    6.6969   -3.2278    3.7386 C   0  0  0  0  0  0  0  0  0  0  0  0
    4.2574    0.5015    0.7617 H   0  0  0  0  0  0  0  0  0  0  0  0
    5.7622    0.2115   -0.1269 H   0  0  0  0  0  0  0  0  0  0  0  0
    5.7960    0.5290    1.6329 H   0  0  0  0  0  0  0  0  0  0  0  0
    8.9943   -4.0648    2.2812 H   0  0  0  0  0  0  0  0  0  0  0  0
    6.7661   -0.4774    3.4645 H   0  0  0  0  0  0  0  0  0  0  0  0
    8.3549   -0.3506    2.6754 H   0  0  0  0  0  0  0  0  0  0  0  0
    8.2221   -0.9495    4.3254 H   0  0  0  0  0  0  0  0  0  0  0  0
    5.7093   -2.7738    3.8705 H   0  0  0  0  0  0  0  0  0  0  0  0
    7.1412   -3.3205    4.7372 H   0  0  0  0  0  0  0  0  0  0  0  0
    6.5600   -4.2473    3.3595 H   0  0  0  0  0  0  0  0  0  0  0  0
  1  2  1  0  0  0  0
  1  9  1  0  0  0  0
  1 10  1  0  0  0  0
  1 11  1  0  0  0  0
  2  3  1  0  0  0  0
  3  4  1  0  0  0  0
  4  8  1  0  0  0  0
  4  7  1  0  0  0  0
  4  5  1  0  0  0  0
  5  6  2  0  0  0  0
  5 12  1  0  0  0  0
  7 13  1  0  0  0  0
  7 14  1  0  0  0  0
  7 15  1  0  0  0  0
  8 16  1  0  0  0  0
  8 17  1  0  0  0  0
  8 18  1  0  0  0  0
M  END
$$$$