536298 536297
 OpenBabel01211413233D

 39 42  0  0  0  0  0  0  0  0999 V2000
    1.5287    1.1876    1.5317 Cl  0  0  0  0  0  0  0  0  0  0  0  0
    3.0652    0.6591    0.9685 C   0  0  0  0  0  0  0  0  0  0  0  0
    3.9002    1.5480    0.2928 C   0  0  0  0  0  0  0  0  0  0  0  0
    5.1488    1.1194   -0.1743 C   0  0  0  0  0  0  0  0  0  0  0  0
    5.5803   -0.1940    0.0548 C   0  0  0  0  0  0  0  0  0  0  0  0
    4.7166   -1.0791    0.7212 C   0  0  0  0  0  0  0  0  0  0  0  0
    3.4648   -0.6565    1.1779 C   0  0  0  0  0  0  0  0  0  0  0  0
    6.8619   -0.6983   -0.4224 C   0  0  0  0  0  0  0  0  0  0  0  0
    6.9714   -2.0105   -0.8614 N   0  0  0  0  0  0  0  0  0  0  0  0
    8.2206   -2.1106   -1.2061 C   0  0  0  0  0  0  0  0  0  0  0  0
    8.9408   -0.9728   -1.0109 N   0  0  0  0  0  0  0  0  0  0  0  0
    8.0905   -0.0280   -0.4787 C   0  0  0  0  0  0  0  0  0  0  0  0
    8.4647    1.2963   -0.0735 C   0  0  0  0  0  0  0  0  0  0  0  0
    9.6352    1.7654   -0.3712 N   0  0  0  0  0  0  0  0  0  0  0  0
    9.7475    3.0825    0.1075 O   0  0  0  0  0  0  0  0  0  0  0  0
   10.9576    3.6602   -0.3944 C   0  0  0  0  0  0  0  0  0  0  0  0
   10.7110    4.2848   -1.7468 C   0  0  0  0  0  0  0  0  0  0  0  0
   10.3045    5.6203   -1.8526 C   0  0  0  0  0  0  0  0  0  0  0  0
   10.0463    6.1839   -3.1050 C   0  0  0  0  0  0  0  0  0  0  0  0
   10.1826    5.4165   -4.2655 C   0  0  0  0  0  0  0  0  0  0  0  0
   10.5778    4.0791   -4.1705 C   0  0  0  0  0  0  0  0  0  0  0  0
   10.8389    3.5181   -2.9159 C   0  0  0  0  0  0  0  0  0  0  0  0
   10.7568    3.0631   -5.5570 Cl  0  0  0  0  0  0  0  0  0  0  0  0
    9.8417    6.1789   -5.7780 Cl  0  0  0  0  0  0  0  0  0  0  0  0
   10.2745   -1.0672   -1.3551 C   0  0  0  0  0  0  0  0  0  0  0  0
   10.5868   -2.2883   -1.8215 C   0  0  0  0  0  0  0  0  0  0  0  0
    9.2039   -3.3900   -1.8473 S   0  0  0  0  0  0  0  0  0  0  0  0
    3.5786    2.5706    0.1123 H   0  0  0  0  0  0  0  0  0  0  0  0
    5.7548    1.8207   -0.7411 H   0  0  0  0  0  0  0  0  0  0  0  0
    5.0138   -2.1154    0.8771 H   0  0  0  0  0  0  0  0  0  0  0  0
    2.8115   -1.3609    1.6850 H   0  0  0  0  0  0  0  0  0  0  0  0
    7.7421    1.9087    0.4881 H   0  0  0  0  0  0  0  0  0  0  0  0
   11.7614    2.9144   -0.4406 H   0  0  0  0  0  0  0  0  0  0  0  0
   11.2834    4.4256    0.3189 H   0  0  0  0  0  0  0  0  0  0  0  0
   10.1795    6.2303   -0.9595 H   0  0  0  0  0  0  0  0  0  0  0  0
    9.7324    7.2233   -3.1684 H   0  0  0  0  0  0  0  0  0  0  0  0
   11.1308    2.4720   -2.8430 H   0  0  0  0  0  0  0  0  0  0  0  0
   10.9450   -0.2309   -1.2393 H   0  0  0  0  0  0  0  0  0  0  0  0
   11.5687   -2.6028   -2.1513 H   0  0  0  0  0  0  0  0  0  0  0  0
  1  2  1  0  0  0  0
  2  3  2  0  0  0  0
  2  7  1  0  0  0  0
  3  4  1  0  0  0  0
  3 28  1  0  0  0  0
  4  5  2  0  0  0  0
  4 29  1  0  0  0  0
  5  6  1  0  0  0  0
  5  8  1  0  0  0  0
  6  7  2  0  0  0  0
  6 30  1  0  0  0  0
  7 31  1  0  0  0  0
  8  9  1  0  0  0  0
  8 12  2  0  0  0  0
  9 10  2  0  0  0  0
 10 27  1  0  0  0  0
 10 11  1  0  0  0  0
 11 25  1  0  0  0  0
 11 12  1  0  0  0  0
 12 13  1  0  0  0  0
 13 14  2  0  0  0  0
 13 32  1  0  0  0  0
 14 15  1  0  0  0  0
 15 16  1  0  0  0  0
 16 17  1  0  0  0  0
 16 33  1  0  0  0  0
 16 34  1  0  0  0  0
 17 18  2  0  0  0  0
 17 22  1  0  0  0  0
 18 19  1  0  0  0  0
 18 35  1  0  0  0  0
 19 20  2  0  0  0  0
 19 36  1  0  0  0  0
 20 21  1  0  0  0  0
 20 24  1  0  0  0  0
 21 22  2  0  0  0  0
 21 23  1  0  0  0  0
 22 37  1  0  0  0  0
 25 26  2  0  0  0  0
 25 38  1  0  0  0  0
 26 27  1  0  0  0  0
 26 39  1  0  0  0  0
M  END
$$$$