532758 532757
 OpenBabel01211413233D

 26 26  0  0  1  0  0  0  0  0999 V2000
    1.8848   -2.1107    0.4854 O   0  0  0  0  0  0  0  0  0  0  0  0
    2.2222   -1.8603   -0.8087 C   0  0  0  0  0  0  0  0  0  0  0  0
    2.6675   -2.7098   -1.5622 O   0  0  0  0  0  0  0  0  0  0  0  0
    2.0223   -0.3750   -1.1467 C   0  0  3  0  0  0  0  0  0  0  0  0
    1.5522   -0.1634   -2.5951 C   0  0  0  0  0  0  0  0  0  0  0  0
    0.1511   -0.6385   -2.9183 C   0  0  0  0  0  0  0  0  0  0  0  0
   -0.0445   -1.9302   -3.4333 C   0  0  0  0  0  0  0  0  0  0  0  0
   -1.3261   -2.3649   -3.7717 C   0  0  0  0  0  0  0  0  0  0  0  0
   -1.5160   -3.6190   -4.2800 O   0  0  0  0  0  0  0  0  0  0  0  0
   -2.4242   -1.5225   -3.6007 C   0  0  0  0  0  0  0  0  0  0  0  0
   -2.2527   -0.2431   -3.0783 C   0  0  0  0  0  0  0  0  0  0  0  0
   -0.9682    0.1866   -2.7399 C   0  0  0  0  0  0  0  0  0  0  0  0
   -0.7833    1.4332   -2.2072 O   0  0  0  0  0  0  0  0  0  0  0  0
   -3.6691   -1.9692   -3.9470 O   0  0  0  0  0  0  0  0  0  0  0  0
    1.1389    0.2373   -0.1034 N   0  0  0  0  0  0  0  0  0  0  0  0
    1.5615   -1.2478    0.8482 H   0  0  0  0  0  0  0  0  0  0  0  0
    3.0111    0.0860   -1.0307 H   0  0  0  0  0  0  0  0  0  0  0  0
    2.2535   -0.6593   -3.2798 H   0  0  0  0  0  0  0  0  0  0  0  0
    1.6291    0.9034   -2.8455 H   0  0  0  0  0  0  0  0  0  0  0  0
    0.8098   -2.5882   -3.5773 H   0  0  0  0  0  0  0  0  0  0  0  0
   -0.6713   -4.0961   -4.2681 H   0  0  0  0  0  0  0  0  0  0  0  0
   -3.1088    0.4060   -2.9333 H   0  0  0  0  0  0  0  0  0  0  0  0
   -1.6150    1.9318   -2.2834 H   0  0  0  0  0  0  0  0  0  0  0  0
   -4.3207   -1.2676   -3.8025 H   0  0  0  0  0  0  0  0  0  0  0  0
    0.1736   -0.0419   -0.3254 H   0  0  0  0  0  0  0  0  0  0  0  0
    1.1108    1.2448   -0.2991 H   0  0  0  0  0  0  0  0  0  0  0  0
  1  2  1  0  0  0  0
  1 16  1  0  0  0  0
  2  4  1  0  0  0  0
  2  3  2  0  0  0  0
  4 15  1  0  0  0  0
  4  5  1  0  0  0  0
  4 17  1  0  0  0  0
  5  6  1  0  0  0  0
  5 18  1  0  0  0  0
  5 19  1  0  0  0  0
  6  7  2  0  0  0  0
  6 12  1  0  0  0  0
  7  8  1  0  0  0  0
  7 20  1  0  0  0  0
  8 10  2  0  0  0  0
  8  9  1  0  0  0  0
  9 21  1  0  0  0  0
 10 11  1  0  0  0  0
 10 14  1  0  0  0  0
 11 12  2  0  0  0  0
 11 22  1  0  0  0  0
 12 13  1  0  0  0  0
 13 23  1  0  0  0  0
 14 24  1  0  0  0  0
 15 25  1  0  0  0  0
 15 26  1  0  0  0  0
M  END
$$$$