1989015 1989014
 OpenBabel01211413463D

 63 62  0  0  1  0  0  0  0  0999 V2000
    0.2016   -1.1683   -7.9075 C   0  0  0  0  0  0  0  0  0  0  0  0
    1.7097   -1.1611   -8.0991 C   0  0  0  0  0  0  0  0  0  0  0  0
    2.3700   -0.0681   -7.2609 C   0  0  0  0  0  0  0  0  0  0  0  0
    3.8858   -0.0511   -7.4583 C   0  0  0  0  0  0  0  0  0  0  0  0
    4.5360    1.0370   -6.6039 C   0  0  0  0  0  0  0  0  0  0  0  0
    6.0535    1.0552   -6.7852 C   0  0  0  0  0  0  0  0  0  0  0  0
    6.6950    2.1356   -5.9135 C   0  0  0  0  0  0  0  0  0  0  0  0
    8.2035    2.2688   -6.1301 C   0  0  0  0  0  0  0  0  0  0  0  0
    8.9807    1.0075   -5.7450 C   0  0  0  0  0  0  0  0  0  0  0  0
   10.4937    1.2298   -5.7095 C   0  0  0  0  0  0  0  0  0  0  0  0
   11.0871    1.5733   -7.0778 C   0  0  0  0  0  0  0  0  0  0  0  0
   12.6153    1.6718   -7.0567 C   0  0  0  0  0  0  0  0  0  0  0  0
   13.1245    2.7712   -6.1196 C   0  0  0  0  0  0  0  0  0  0  0  0
   14.6014    3.0094   -6.2270 C   0  0  0  0  0  0  0  0  0  0  0  0
   15.5500    2.0815   -6.0124 C   0  0  0  0  0  0  0  0  0  0  0  0
   17.0470    2.2392   -6.1512 C   0  0  3  0  0  0  0  0  0  0  0  0
   17.6164    3.6529   -6.4201 C   0  0  3  0  0  0  0  0  0  0  0  0
   19.1267    3.6496   -6.2106 C   0  0  0  0  0  0  0  0  0  0  0  0
   19.6469    2.7356   -7.1597 O   0  0  0  0  0  0  0  0  0  0  0  0
   21.2350    2.5229   -7.1231 P   0  0  0  0  0  0  0  0  0  0  0  0
   21.8584    2.2479   -5.7990 O   0  0  0  0  0  0  0  0  0  0  0  0
   21.6016    1.5071   -8.2944 O   0  0  0  0  0  0  0  0  0  0  0  0
   21.8142    3.8864   -7.7250 O   0  0  0  0  0  0  0  0  0  0  0  0
   17.3564    4.0140   -7.8174 N   0  0  0  0  0  0  0  0  0  0  0  0
   17.6334    1.7450   -4.9499 O   0  0  0  0  0  0  0  0  0  0  0  0
   -0.2530   -1.9648   -8.5044 H   0  0  0  0  0  0  0  0  0  0  0  0
   -0.2371   -0.2156   -8.2209 H   0  0  0  0  0  0  0  0  0  0  0  0
   -0.0596   -1.3379   -6.8580 H   0  0  0  0  0  0  0  0  0  0  0  0
    1.9378   -1.0074   -9.1602 H   0  0  0  0  0  0  0  0  0  0  0  0
    2.1136   -2.1408   -7.8183 H   0  0  0  0  0  0  0  0  0  0  0  0
    2.1402   -0.2303   -6.2006 H   0  0  0  0  0  0  0  0  0  0  0  0
    1.9536    0.9087   -7.5355 H   0  0  0  0  0  0  0  0  0  0  0  0
    4.1188    0.1222   -8.5159 H   0  0  0  0  0  0  0  0  0  0  0  0
    4.3038   -1.0291   -7.1905 H   0  0  0  0  0  0  0  0  0  0  0  0
    4.2959    0.8667   -5.5473 H   0  0  0  0  0  0  0  0  0  0  0  0
    4.1214    2.0151   -6.8764 H   0  0  0  0  0  0  0  0  0  0  0  0
    6.2977    1.2369   -7.8387 H   0  0  0  0  0  0  0  0  0  0  0  0
    6.4567    0.0709   -6.5220 H   0  0  0  0  0  0  0  0  0  0  0  0
    6.4941    1.9259   -4.8558 H   0  0  0  0  0  0  0  0  0  0  0  0
    6.2300    3.1037   -6.1369 H   0  0  0  0  0  0  0  0  0  0  0  0
    8.5617    3.1138   -5.5292 H   0  0  0  0  0  0  0  0  0  0  0  0
    8.3928    2.5221   -7.1796 H   0  0  0  0  0  0  0  0  0  0  0  0
    8.7534    0.1933   -6.4421 H   0  0  0  0  0  0  0  0  0  0  0  0
    8.6612    0.6758   -4.7494 H   0  0  0  0  0  0  0  0  0  0  0  0
   10.9705    0.3179   -5.3296 H   0  0  0  0  0  0  0  0  0  0  0  0
   10.7118    2.0262   -4.9894 H   0  0  0  0  0  0  0  0  0  0  0  0
   10.6774    2.5218   -7.4430 H   0  0  0  0  0  0  0  0  0  0  0  0
   10.7983    0.8023   -7.8027 H   0  0  0  0  0  0  0  0  0  0  0  0
   12.9615    1.8707   -8.0793 H   0  0  0  0  0  0  0  0  0  0  0  0
   13.0348    0.7009   -6.7662 H   0  0  0  0  0  0  0  0  0  0  0  0
   12.8851    2.5438   -5.0753 H   0  0  0  0  0  0  0  0  0  0  0  0
   12.6117    3.7111   -6.3603 H   0  0  0  0  0  0  0  0  0  0  0  0
   14.8878    4.0159   -6.5265 H   0  0  0  0  0  0  0  0  0  0  0  0
   15.2375    1.0751   -5.7342 H   0  0  0  0  0  0  0  0  0  0  0  0
   17.3668    1.5453   -6.9388 H   0  0  0  0  0  0  0  0  0  0  0  0
   17.1714    4.3886   -5.7409 H   0  0  0  0  0  0  0  0  0  0  0  0
   19.4123    3.3527   -5.1966 H   0  0  0  0  0  0  0  0  0  0  0  0
   19.5447    4.6450   -6.4000 H   0  0  0  0  0  0  0  0  0  0  0  0
   21.3897    1.8857   -9.1656 H   0  0  0  0  0  0  0  0  0  0  0  0
   22.4788    4.2340   -7.0996 H   0  0  0  0  0  0  0  0  0  0  0  0
   17.7290    3.2581   -8.3925 H   0  0  0  0  0  0  0  0  0  0  0  0
   17.8597    4.8599   -8.0640 H   0  0  0  0  0  0  0  0  0  0  0  0
   17.3092    2.3156   -4.2321 H   0  0  0  0  0  0  0  0  0  0  0  0
  1  2  1  0  0  0  0
  1 26  1  0  0  0  0
  1 27  1  0  0  0  0
  1 28  1  0  0  0  0
  2  3  1  0  0  0  0
  2 29  1  0  0  0  0
  2 30  1  0  0  0  0
  3  4  1  0  0  0  0
  3 31  1  0  0  0  0
  3 32  1  0  0  0  0
  4  5  1  0  0  0  0
  4 33  1  0  0  0  0
  4 34  1  0  0  0  0
  5  6  1  0  0  0  0
  5 35  1  0  0  0  0
  5 36  1  0  0  0  0
  6  7  1  0  0  0  0
  6 37  1  0  0  0  0
  6 38  1  0  0  0  0
  7  8  1  0  0  0  0
  7 39  1  0  0  0  0
  7 40  1  0  0  0  0
  8  9  1  0  0  0  0
  8 41  1  0  0  0  0
  8 42  1  0  0  0  0
  9 10  1  0  0  0  0
  9 43  1  0  0  0  0
  9 44  1  0  0  0  0
 10 11  1  0  0  0  0
 10 45  1  0  0  0  0
 10 46  1  0  0  0  0
 11 12  1  0  0  0  0
 11 47  1  0  0  0  0
 11 48  1  0  0  0  0
 12 13  1  0  0  0  0
 12 49  1  0  0  0  0
 12 50  1  0  0  0  0
 13 14  1  0  0  0  0
 13 51  1  0  0  0  0
 13 52  1  0  0  0  0
 14 15  2  3  0  0  0
 14 53  1  0  0  0  0
 15 16  1  0  0  0  0
 15 54  1  0  0  0  0
 16 25  1  0  0  0  0
 16 17  1  0  0  0  0
 16 55  1  0  0  0  0
 17 24  1  0  0  0  0
 17 18  1  0  0  0  0
 17 56  1  0  0  0  0
 18 19  1  0  0  0  0
 18 57  1  0  0  0  0
 18 58  1  0  0  0  0
 19 20  1  0  0  0  0
 20 23  1  0  0  0  0
 20 22  1  0  0  0  0
 20 21  2  0  0  0  0
 22 59  1  0  0  0  0
 23 60  1  0  0  0  0
 24 61  1  0  0  0  0
 24 62  1  0  0  0  0
 25 63  1  0  0  0  0
M  END
$$$$