31263637 31263636
 OpenBabel01211414073D

 23 23  0  0  0  0  0  0  0  0999 V2000
    2.5640    3.2673    0.7192 F   0  0  0  0  0  0  0  0  0  0  0  0
    3.3190    3.1659   -0.4009 C   0  0  0  0  0  0  0  0  0  0  0  0
    2.8438    3.6949   -1.5309 C   0  0  0  0  0  0  0  0  0  0  0  0
    3.5554    3.6148   -2.6760 F   0  0  0  0  0  0  0  0  0  0  0  0
    1.6393    4.3022   -1.5361 F   0  0  0  0  0  0  0  0  0  0  0  0
    4.6384    2.4712   -0.2947 C   0  0  0  0  0  0  0  0  0  0  0  0
    4.4598    0.9864    0.0119 C   0  0  0  0  0  0  0  0  0  0  0  0
    5.7533    0.3798    0.0282 O   0  0  0  0  0  0  0  0  0  0  0  0
    5.8051   -0.9597    0.2909 C   0  0  0  0  0  0  0  0  0  0  0  0
    4.7522   -1.7441    0.7649 C   0  0  0  0  0  0  0  0  0  0  0  0
    4.9478   -3.1064    1.0140 C   0  0  0  0  0  0  0  0  0  0  0  0
    6.1921   -3.6912    0.7861 C   0  0  0  0  0  0  0  0  0  0  0  0
    7.2456   -2.9135    0.3125 C   0  0  0  0  0  0  0  0  0  0  0  0
    7.0515   -1.5524    0.0703 C   0  0  0  0  0  0  0  0  0  0  0  0
    5.2280    2.9388    0.5049 H   0  0  0  0  0  0  0  0  0  0  0  0
    5.2358    2.5909   -1.2064 H   0  0  0  0  0  0  0  0  0  0  0  0
    3.8435    0.5148   -0.7641 H   0  0  0  0  0  0  0  0  0  0  0  0
    3.9751    0.8781    0.9903 H   0  0  0  0  0  0  0  0  0  0  0  0
    3.7704   -1.3289    0.9632 H   0  0  0  0  0  0  0  0  0  0  0  0
    4.1261   -3.7113    1.3903 H   0  0  0  0  0  0  0  0  0  0  0  0
    6.3409   -4.7499    0.9809 H   0  0  0  0  0  0  0  0  0  0  0  0
    8.2184   -3.3635    0.1325 H   0  0  0  0  0  0  0  0  0  0  0  0
    7.8780   -0.9486   -0.2970 H   0  0  0  0  0  0  0  0  0  0  0  0
  1  2  1  0  0  0  0
  2  6  1  0  0  0  0
  2  3  2  0  0  0  0
  3  5  1  0  0  0  0
  3  4  1  0  0  0  0
  6  7  1  0  0  0  0
  6 15  1  0  0  0  0
  6 16  1  0  0  0  0
  7  8  1  0  0  0  0
  7 17  1  0  0  0  0
  7 18  1  0  0  0  0
  8  9  1  0  0  0  0
  9 10  2  0  0  0  0
  9 14  1  0  0  0  0
 10 11  1  0  0  0  0
 10 19  1  0  0  0  0
 11 12  2  0  0  0  0
 11 20  1  0  0  0  0
 12 13  1  0  0  0  0
 12 21  1  0  0  0  0
 13 14  2  0  0  0  0
 13 22  1  0  0  0  0
 14 23  1  0  0  0  0
M  END
$$$$