13733126 13733125
 OpenBabel01211413593D

 24 24  0  0  0  0  0  0  0  0999 V2000
    0.9718   -0.2291    0.0374 C   0  0  0  0  0  0  0  0  0  0  0  0
    2.8295    0.0427   -0.0650 Si  0  0  0  0  0  0  0  0  0  0  0  0
    3.4232    0.6672    1.6308 C   0  0  0  0  0  0  0  0  0  0  0  0
    3.5956    1.9722    1.9123 C   0  0  0  0  0  0  0  0  0  0  0  0
    4.0121    2.4572    3.2672 C   0  0  0  0  0  0  0  0  0  0  0  0
    3.9515    1.3424    4.3023 C   0  0  0  0  0  0  0  0  0  0  0  0
    4.4499    0.0480    3.6812 C   0  0  0  0  0  0  0  0  0  0  0  0
    3.6481   -0.3377    2.5599 O   0  0  0  0  0  0  0  0  0  0  0  0
    3.6068   -1.3876   -0.4563 O   0  0  0  0  0  0  0  0  0  0  0  0
    3.1737    1.3319   -1.3872 C   0  0  0  0  0  0  0  0  0  0  0  0
    0.5842   -0.5876   -0.9203 H   0  0  0  0  0  0  0  0  0  0  0  0
    0.4584    0.7033    0.2881 H   0  0  0  0  0  0  0  0  0  0  0  0
    0.7323   -0.9713    0.8041 H   0  0  0  0  0  0  0  0  0  0  0  0
    3.4238    2.7410    1.1636 H   0  0  0  0  0  0  0  0  0  0  0  0
    5.0324    2.8508    3.1978 H   0  0  0  0  0  0  0  0  0  0  0  0
    3.3652    3.2846    3.5819 H   0  0  0  0  0  0  0  0  0  0  0  0
    4.5441    1.6073    5.1845 H   0  0  0  0  0  0  0  0  0  0  0  0
    2.9116    1.2109    4.6268 H   0  0  0  0  0  0  0  0  0  0  0  0
    4.3966   -0.7624    4.4159 H   0  0  0  0  0  0  0  0  0  0  0  0
    5.4960    0.1323    3.3616 H   0  0  0  0  0  0  0  0  0  0  0  0
    3.2871   -1.8526   -1.2444 H   0  0  0  0  0  0  0  0  0  0  0  0
    2.8687    0.9598   -2.3703 H   0  0  0  0  0  0  0  0  0  0  0  0
    4.2414    1.5683   -1.4288 H   0  0  0  0  0  0  0  0  0  0  0  0
    2.6222    2.2560   -1.1887 H   0  0  0  0  0  0  0  0  0  0  0  0
  1  2  1  0  0  0  0
  1 11  1  0  0  0  0
  1 12  1  0  0  0  0
  1 13  1  0  0  0  0
  2 10  1  0  0  0  0
  2  9  1  0  0  0  0
  2  3  1  0  0  0  0
  3  8  1  0  0  0  0
  3  4  2  0  0  0  0
  4  5  1  0  0  0  0
  4 14  1  0  0  0  0
  5  6  1  0  0  0  0
  5 15  1  0  0  0  0
  5 16  1  0  0  0  0
  6  7  1  0  0  0  0
  6 17  1  0  0  0  0
  6 18  1  0  0  0  0
  7  8  1  0  0  0  0
  7 19  1  0  0  0  0
  7 20  1  0  0  0  0
  9 21  1  0  0  0  0
 10 22  1  0  0  0  0
 10 23  1  0  0  0  0
 10 24  1  0  0  0  0
M  END
$$$$