24280377 24280376
 OpenBabel01211414023D

 24 24  0  0  1  0  0  0  0  0999 V2000
    0.8431    0.1248   -0.1307 C   0  0  0  0  0  0  0  0  0  0  0  0
    2.3510    0.0221   -0.0767 C   0  0  0  0  0  0  0  0  0  0  0  0
    2.9485   -1.1292   -0.4103 C   0  0  0  0  0  0  0  0  0  0  0  0
    4.3885   -1.5436   -0.3980 C   0  0  3  0  0  0  0  0  0  0  0  0
    4.5555   -2.5995    0.7074 C   0  0  0  0  0  0  0  0  0  0  0  0
    5.5117   -0.4982   -0.3336 C   0  0  0  0  0  0  0  0  0  0  0  0
    7.0916   -0.9409   -0.7638 S   0  0  0  0  0  0  0  0  0  0  0  0
    5.3734    0.7861    0.0687 N   0  0  0  0  0  0  0  0  0  0  0  0
    4.2998    1.5684    0.4056 C   0  0  0  0  0  0  0  0  0  0  0  0
    3.0042    1.2286    0.3677 C   0  0  0  0  0  0  0  0  0  0  0  0
    4.6808    2.9756    0.8116 C   0  0  0  0  0  0  0  0  0  0  0  0
    0.3750   -0.7924   -0.5033 H   0  0  0  0  0  0  0  0  0  0  0  0
    0.5342    0.9414   -0.7922 H   0  0  0  0  0  0  0  0  0  0  0  0
    0.4377    0.3139    0.8700 H   0  0  0  0  0  0  0  0  0  0  0  0
    2.2939   -1.9426   -0.7281 H   0  0  0  0  0  0  0  0  0  0  0  0
    4.5345   -2.0601   -1.3598 H   0  0  0  0  0  0  0  0  0  0  0  0
    4.4681   -2.1531    1.7037 H   0  0  0  0  0  0  0  0  0  0  0  0
    5.5300   -3.0962    0.6512 H   0  0  0  0  0  0  0  0  0  0  0  0
    3.7976   -3.3880    0.6193 H   0  0  0  0  0  0  0  0  0  0  0  0
    6.2729    1.2609    0.0869 H   0  0  0  0  0  0  0  0  0  0  0  0
    2.2969    2.0036    0.6705 H   0  0  0  0  0  0  0  0  0  0  0  0
    3.8284    3.5523    1.1873 H   0  0  0  0  0  0  0  0  0  0  0  0
    5.0906    3.5146   -0.0510 H   0  0  0  0  0  0  0  0  0  0  0  0
    5.4394    2.9593    1.6016 H   0  0  0  0  0  0  0  0  0  0  0  0
  1  2  1  0  0  0  0
  1 12  1  0  0  0  0
  1 13  1  0  0  0  0
  1 14  1  0  0  0  0
  2  3  2  0  0  0  0
  2 10  1  0  0  0  0
  3  4  1  0  0  0  0
  3 15  1  0  0  0  0
  4  6  1  0  0  0  0
  4  5  1  0  0  0  0
  4 16  1  0  0  0  0
  5 17  1  0  0  0  0
  5 18  1  0  0  0  0
  5 19  1  0  0  0  0
  6  8  1  0  0  0  0
  6  7  2  0  0  0  0
  8  9  1  0  0  0  0
  8 20  1  0  0  0  0
  9 10  2  0  0  0  0
  9 11  1  0  0  0  0
 10 21  1  0  0  0  0
 11 22  1  0  0  0  0
 11 23  1  0  0  0  0
 11 24  1  0  0  0  0
M  END
$$$$