478909 478908
 OpenBabel01211413173D

 15 16  0  0  1  0  0  0  0  0999 V2000
    1.6321   -0.0869    1.3144 C   0  0  0  0  0  0  0  0  0  0  0  0
    2.4831   -0.1813    0.0403 C   0  0  3  0  0  0  0  0  0  0  0  0
    3.3690    1.0303    0.2506 C   0  0  0  0  0  0  0  0  0  0  0  0
    3.6029    1.1023    1.5753 C   0  0  0  0  0  0  0  0  0  0  0  0
    2.8546   -0.0378    2.2282 C   0  0  3  0  0  0  0  0  0  0  0  0
    3.5276   -1.2487    1.8230 N   0  0  0  0  0  0  0  0  0  0  0  0
    3.3730   -1.3710    0.4289 C   0  0  0  0  0  0  0  0  0  0  0  0
    3.9312   -2.1706   -0.2960 O   0  0  0  0  0  0  0  0  0  0  0  0
    1.0123   -0.9772    1.4767 H   0  0  0  0  0  0  0  0  0  0  0  0
    1.0038    0.8110    1.3629 H   0  0  0  0  0  0  0  0  0  0  0  0
    1.9377   -0.2679   -0.8960 H   0  0  0  0  0  0  0  0  0  0  0  0
    3.7870    1.6549   -0.5234 H   0  0  0  0  0  0  0  0  0  0  0  0
    4.2405    1.8104    2.0816 H   0  0  0  0  0  0  0  0  0  0  0  0
    2.6651    0.0351    3.2985 H   0  0  0  0  0  0  0  0  0  0  0  0
    4.2607   -1.7418    2.3144 H   0  0  0  0  0  0  0  0  0  0  0  0
  1  2  1  0  0  0  0
  1  5  1  0  0  0  0
  1  9  1  0  0  0  0
  1 10  1  0  0  0  0
  2  7  1  0  0  0  0
  2  3  1  0  0  0  0
  2 11  1  0  0  0  0
  3  4  2  0  0  0  0
  3 12  1  0  0  0  0
  4  5  1  0  0  0  0
  4 13  1  0  0  0  0
  5  6  1  0  0  0  0
  5 14  1  0  0  0  0
  6  7  1  0  0  0  0
  6 15  1  0  0  0  0
  7  8  2  0  0  0  0
M  END
$$$$