483479 483478
 OpenBabel01211413183D

 20 21  0  0  0  0  0  0  0  0999 V2000
    1.3648    0.0774    0.6758 C   0  0  0  0  0  0  0  0  0  0  0  0
    2.4906   -0.0785   -0.3172 C   0  0  0  0  0  0  0  0  0  0  0  0
    2.9259   -1.2010   -0.5775 O   0  0  0  0  0  0  0  0  0  0  0  0
    2.9966    1.1423   -0.9138 C   0  0  0  0  0  0  0  0  0  0  0  0
    2.6518    2.4747   -0.7590 C   0  0  0  0  0  0  0  0  0  0  0  0
    3.5028    3.2274   -1.6111 C   0  0  0  0  0  0  0  0  0  0  0  0
    4.3219    2.2988   -2.2387 C   0  0  0  0  0  0  0  0  0  0  0  0
    4.0185    1.0419   -1.8200 O   0  0  0  0  0  0  0  0  0  0  0  0
    5.3095    2.6260   -3.1641 C   0  0  0  0  0  0  0  0  0  0  0  0
    5.4616    3.9849   -3.4587 C   0  0  0  0  0  0  0  0  0  0  0  0
    4.6568    4.9509   -2.8482 C   0  0  0  0  0  0  0  0  0  0  0  0
    3.6700    4.5888   -1.9195 C   0  0  0  0  0  0  0  0  0  0  0  0
    0.4972    0.5340    0.1916 H   0  0  0  0  0  0  0  0  0  0  0  0
    1.6921    0.6877    1.5221 H   0  0  0  0  0  0  0  0  0  0  0  0
    1.0712   -0.9068    1.0532 H   0  0  0  0  0  0  0  0  0  0  0  0
    1.8800    2.8654   -0.1111 H   0  0  0  0  0  0  0  0  0  0  0  0
    5.9235    1.8626   -3.6267 H   0  0  0  0  0  0  0  0  0  0  0  0
    6.2201    4.2927   -4.1759 H   0  0  0  0  0  0  0  0  0  0  0  0
    4.7976    6.0009   -3.0969 H   0  0  0  0  0  0  0  0  0  0  0  0
    3.0512    5.3487   -1.4522 H   0  0  0  0  0  0  0  0  0  0  0  0
  1  2  1  0  0  0  0
  1 13  1  0  0  0  0
  1 14  1  0  0  0  0
  1 15  1  0  0  0  0
  2  4  1  0  0  0  0
  2  3  2  0  0  0  0
  4  8  1  0  0  0  0
  4  5  2  0  0  0  0
  5  6  1  0  0  0  0
  5 16  1  0  0  0  0
  6  7  2  0  0  0  0
  6 12  1  0  0  0  0
  7  9  1  0  0  0  0
  7  8  1  0  0  0  0
  9 10  2  0  0  0  0
  9 17  1  0  0  0  0
 10 11  1  0  0  0  0
 10 18  1  0  0  0  0
 11 12  2  0  0  0  0
 11 19  1  0  0  0  0
 12 20  1  0  0  0  0
M  END
$$$$