500404 500403
 OpenBabel01211413193D

  6  5  0  0  0  0  0  0  0  0999 V2000
    1.0670   -0.1320    0.0302 Cl  0  0  0  0  0  0  0  0  0  0  0  0
    2.7786   -0.0780    0.0449 C   0  0  0  0  0  0  0  0  0  0  0  0
    3.4578    1.0260    0.3447 C   0  0  0  0  0  0  0  0  0  0  0  0
    5.1694    1.0800    0.3594 Cl  0  0  0  0  0  0  0  0  0  0  0  0
    3.2295   -1.0274   -0.2129 H   0  0  0  0  0  0  0  0  0  0  0  0
    3.0068    1.9754    0.6025 H   0  0  0  0  0  0  0  0  0  0  0  0
  1  2  1  0  0  0  0
  2  3  2  3  0  0  0
  2  5  1  0  0  0  0
  3  4  1  0  0  0  0
  3  6  1  0  0  0  0
M  END
$$$$