2756357 2756356
 OpenBabel01211413503D

 30 31  0  0  1  0  0  0  0  0999 V2000
    7.5270    5.6642    6.2141 N   0  0  0  0  0  0  0  0  0  0  0  0
    7.4568    5.5305    4.8544 C   0  0  0  0  0  0  0  0  0  0  0  0
    7.0573    6.4008    4.0955 O   0  0  0  0  0  0  0  0  0  0  0  0
    7.9291    4.1684    4.3155 C   0  0  0  0  0  0  0  0  0  0  0  0
    8.3136    3.3138    5.1024 O   0  0  0  0  0  0  0  0  0  0  0  0
    7.8451    4.1002    2.9374 N   0  0  0  0  0  0  0  0  0  0  0  0
    8.2270    2.9722    2.2817 N   0  0  0  0  0  0  0  0  0  0  0  0
    8.0680    2.9851    0.9990 C   0  0  0  0  0  0  0  0  0  0  0  0
    8.4102    1.7728    0.1560 C   0  0  1  0  0  0  0  0  0  0  0  0
    7.4633    1.2579   -0.0452 H   0  0  0  0  0  0  0  0  0  0  0  0
    9.0927    2.1785   -1.1659 C   0  0  0  0  0  0  0  0  0  0  0  0
   10.4057    1.3749   -1.1384 C   0  0  3  0  0  0  0  0  0  0  0  0
   10.7791    1.4459    0.3396 C   0  0  0  0  0  0  0  0  0  0  0  0
    9.4540    0.8323    0.8010 C   0  0  3  0  0  0  0  0  0  0  0  0
    9.4494   -0.4995    0.0313 C   0  0  0  0  0  0  0  0  0  0  0  0
   10.0876   -0.1208   -1.3131 C   0  0  0  0  0  0  0  0  0  0  0  0
    7.8716    4.8887    6.7719 H   0  0  0  0  0  0  0  0  0  0  0  0
    7.2413    6.5244    6.6570 H   0  0  0  0  0  0  0  0  0  0  0  0
    7.4894    4.9118    2.4365 H   0  0  0  0  0  0  0  0  0  0  0  0
    7.6138    3.8438    0.4720 H   0  0  0  0  0  0  0  0  0  0  0  0
    9.3025    3.2535   -1.2073 H   0  0  0  0  0  0  0  0  0  0  0  0
    8.4770    1.9196   -2.0340 H   0  0  0  0  0  0  0  0  0  0  0  0
   11.1592    1.7455   -1.8360 H   0  0  0  0  0  0  0  0  0  0  0  0
   10.9350    2.4689    0.6974 H   0  0  0  0  0  0  0  0  0  0  0  0
   11.6502    0.8329    0.5943 H   0  0  0  0  0  0  0  0  0  0  0  0
    9.3615    0.7014    1.8810 H   0  0  0  0  0  0  0  0  0  0  0  0
   10.0661   -1.2461    0.5445 H   0  0  0  0  0  0  0  0  0  0  0  0
    8.4436   -0.9137   -0.0896 H   0  0  0  0  0  0  0  0  0  0  0  0
   11.0052   -0.6995   -1.4683 H   0  0  0  0  0  0  0  0  0  0  0  0
    9.4157   -0.3127   -2.1555 H   0  0  0  0  0  0  0  0  0  0  0  0
  1  2  1  0  0  0  0
  1 17  1  0  0  0  0
  1 18  1  0  0  0  0
  2  4  1  0  0  0  0
  2  3  2  0  0  0  0
  4  6  1  0  0  0  0
  4  5  2  0  0  0  0
  6  7  1  0  0  0  0
  6 19  1  0  0  0  0
  7  8  2  3  0  0  0
  8 20  1  0  0  0  0
  9 11  1  0  0  0  0
  9 14  1  0  0  0  0
  9 10  1  6  0  0  0
  9  8  1  0  0  0  0
 11 12  1  0  0  0  0
 11 21  1  0  0  0  0
 11 22  1  0  0  0  0
 12 16  1  0  0  0  0
 12 13  1  0  0  0  0
 12 23  1  0  0  0  0
 13 14  1  0  0  0  0
 13 24  1  0  0  0  0
 13 25  1  0  0  0  0
 14 15  1  0  0  0  0
 14 26  1  0  0  0  0
 15 16  1  0  0  0  0
 15 27  1  0  0  0  0
 15 28  1  0  0  0  0
 16 29  1  0  0  0  0
 16 30  1  0  0  0  0
M  END
$$$$