509907 509906
 OpenBabel01211413213D

 38 40  0  0  0  0  0  0  0  0999 V2000
    1.3233   -0.0352   -0.5366 C   0  0  0  0  0  0  0  0  0  0  0  0
    2.7260    0.0070   -0.1162 N   0  0  0  0  0  0  0  0  0  0  0  0
    3.3781    1.2169    0.0622 C   0  0  0  0  0  0  0  0  0  0  0  0
    4.6799    1.3458    0.3620 C   0  0  0  0  0  0  0  0  0  0  0  0
    5.2739    2.6744    0.5391 C   0  0  0  0  0  0  0  0  0  0  0  0
    5.8837    3.3226   -0.5408 C   0  0  0  0  0  0  0  0  0  0  0  0
    6.4302    4.5960   -0.3794 C   0  0  0  0  0  0  0  0  0  0  0  0
    6.3717    5.2308    0.8613 C   0  0  0  0  0  0  0  0  0  0  0  0
    5.7663    4.5974    1.9575 C   0  0  0  0  0  0  0  0  0  0  0  0
    5.2165    3.3156    1.7831 C   0  0  0  0  0  0  0  0  0  0  0  0
    5.6978    5.2664    3.3071 C   0  0  0  0  0  0  0  0  0  0  0  0
    4.4153    5.4404    3.7337 F   0  0  0  0  0  0  0  0  0  0  0  0
    6.3204    4.5483    4.2822 F   0  0  0  0  0  0  0  0  0  0  0  0
    6.2674    6.5040    3.3338 F   0  0  0  0  0  0  0  0  0  0  0  0
    5.4935    0.0915    0.4874 C   0  0  0  0  0  0  0  0  0  0  0  0
    6.6926    0.1528    0.7523 O   0  0  0  0  0  0  0  0  0  0  0  0
    4.7913   -1.2272    0.2665 C   0  0  0  0  0  0  0  0  0  0  0  0
    3.4752   -1.1580   -0.0099 C   0  0  0  0  0  0  0  0  0  0  0  0
    5.4885   -2.5295    0.3575 C   0  0  0  0  0  0  0  0  0  0  0  0
    6.4363   -2.7727    1.3616 C   0  0  0  0  0  0  0  0  0  0  0  0
    7.0985   -4.0013    1.4452 C   0  0  0  0  0  0  0  0  0  0  0  0
    6.8184   -5.0106    0.5280 C   0  0  0  0  0  0  0  0  0  0  0  0
    5.8825   -4.7893   -0.4779 C   0  0  0  0  0  0  0  0  0  0  0  0
    5.2279   -3.5569   -0.5660 C   0  0  0  0  0  0  0  0  0  0  0  0
    0.8316   -0.9508   -0.1907 H   0  0  0  0  0  0  0  0  0  0  0  0
    1.2597    0.0017   -1.6290 H   0  0  0  0  0  0  0  0  0  0  0  0
    0.7608    0.8114   -0.1271 H   0  0  0  0  0  0  0  0  0  0  0  0
    2.7408    2.0898   -0.0585 H   0  0  0  0  0  0  0  0  0  0  0  0
    5.9442    2.8351   -1.5114 H   0  0  0  0  0  0  0  0  0  0  0  0
    6.9082    5.0904   -1.2219 H   0  0  0  0  0  0  0  0  0  0  0  0
    6.8075    6.2230    0.9712 H   0  0  0  0  0  0  0  0  0  0  0  0
    4.7492    2.8129    2.6301 H   0  0  0  0  0  0  0  0  0  0  0  0
    2.8866   -2.0587   -0.1661 H   0  0  0  0  0  0  0  0  0  0  0  0
    6.6800   -2.0025    2.0917 H   0  0  0  0  0  0  0  0  0  0  0  0
    7.8382   -4.1640    2.2257 H   0  0  0  0  0  0  0  0  0  0  0  0
    7.3352   -5.9644    0.5929 H   0  0  0  0  0  0  0  0  0  0  0  0
    5.6667   -5.5719   -1.2010 H   0  0  0  0  0  0  0  0  0  0  0  0
    4.5186   -3.4074   -1.3775 H   0  0  0  0  0  0  0  0  0  0  0  0
  1  2  1  0  0  0  0
  1 25  1  0  0  0  0
  1 26  1  0  0  0  0
  1 27  1  0  0  0  0
  2 18  1  0  0  0  0
  2  3  1  0  0  0  0
  3  4  2  0  0  0  0
  3 28  1  0  0  0  0
  4 15  1  0  0  0  0
  4  5  1  0  0  0  0
  5  6  2  0  0  0  0
  5 10  1  0  0  0  0
  6  7  1  0  0  0  0
  6 29  1  0  0  0  0
  7  8  2  0  0  0  0
  7 30  1  0  0  0  0
  8  9  1  0  0  0  0
  8 31  1  0  0  0  0
  9 10  2  0  0  0  0
  9 11  1  0  0  0  0
 10 32  1  0  0  0  0
 11 14  1  0  0  0  0
 11 13  1  0  0  0  0
 11 12  1  0  0  0  0
 15 17  1  0  0  0  0
 15 16  2  0  0  0  0
 17 18  2  0  0  0  0
 17 19  1  0  0  0  0
 18 33  1  0  0  0  0
 19 20  2  0  0  0  0
 19 24  1  0  0  0  0
 20 21  1  0  0  0  0
 20 34  1  0  0  0  0
 21 22  2  0  0  0  0
 21 35  1  0  0  0  0
 22 23  1  0  0  0  0
 22 36  1  0  0  0  0
 23 24  2  0  0  0  0
 23 37  1  0  0  0  0
 24 38  1  0  0  0  0
M  END
$$$$