1058379 1058378
 OpenBabel01211413373D

 46 48  0  0  1  0  0  0  0  0999 V2000
    0.9628   -0.1314   -0.7780 C   0  0  0  0  0  0  0  0  0  0  0  0
    2.5352    0.4341   -0.1243 P   0  0  3  0  0  0  0  0  0  0  0  0
    3.5945   -0.4523   -0.7413 O   0  0  0  0  0  0  0  0  0  0  0  0
    2.8532    2.1822   -0.6250 C   0  0  3  0  0  0  0  0  0  0  0  0
    3.8332    2.4982   -2.1765 P   0  0  3  0  0  0  0  0  0  0  0  0
    3.8415    3.9799   -2.4939 O   0  0  0  0  0  0  0  0  0  0  0  0
    5.4775    1.8430   -1.9915 C   0  0  0  0  0  0  0  0  0  0  0  0
    5.8340    0.5525   -2.4003 C   0  0  0  0  0  0  0  0  0  0  0  0
    7.1363    0.0780   -2.2249 C   0  0  0  0  0  0  0  0  0  0  0  0
    8.1077    0.8965   -1.6566 C   0  0  0  0  0  0  0  0  0  0  0  0
    7.7773    2.1905   -1.2635 C   0  0  0  0  0  0  0  0  0  0  0  0
    6.4714    2.6585   -1.4300 C   0  0  0  0  0  0  0  0  0  0  0  0
    2.9208    1.6296   -3.4527 C   0  0  0  0  0  0  0  0  0  0  0  0
    1.6673    3.1254   -0.5139 C   0  0  0  0  0  0  0  0  0  0  0  0
    1.8593    4.4687   -0.1965 C   0  0  0  0  0  0  0  0  0  0  0  0
    0.7619    5.3277   -0.1691 C   0  0  0  0  0  0  0  0  0  0  0  0
   -0.5011    4.8284   -0.4533 C   0  0  0  0  0  0  0  0  0  0  0  0
   -0.6077    3.4870   -0.7617 C   0  0  0  0  0  0  0  0  0  0  0  0
    0.4431    2.6352   -0.8020 N   0  0  0  0  0  0  0  0  0  0  0  0
    2.5324    0.3485    1.6526 C   0  0  0  0  0  0  0  0  0  0  0  0
    1.3783    0.5361    2.4198 C   0  0  0  0  0  0  0  0  0  0  0  0
    1.4255    0.4028    3.8103 C   0  0  0  0  0  0  0  0  0  0  0  0
    2.6275    0.0993    4.4478 C   0  0  0  0  0  0  0  0  0  0  0  0
    3.7872   -0.0677    3.6964 C   0  0  0  0  0  0  0  0  0  0  0  0
    3.7387    0.0551    2.3083 C   0  0  0  0  0  0  0  0  0  0  0  0
    0.0994    0.2943   -0.2633 H   0  0  0  0  0  0  0  0  0  0  0  0
    0.8956   -1.2177   -0.6534 H   0  0  0  0  0  0  0  0  0  0  0  0
    0.8797    0.0856   -1.8459 H   0  0  0  0  0  0  0  0  0  0  0  0
    3.5636    2.5086    0.1489 H   0  0  0  0  0  0  0  0  0  0  0  0
    5.0943   -0.1162   -2.8354 H   0  0  0  0  0  0  0  0  0  0  0  0
    7.3860   -0.9353   -2.5274 H   0  0  0  0  0  0  0  0  0  0  0  0
    9.1209    0.5267   -1.5235 H   0  0  0  0  0  0  0  0  0  0  0  0
    8.5369    2.8378   -0.8314 H   0  0  0  0  0  0  0  0  0  0  0  0
    6.2295    3.6779   -1.1333 H   0  0  0  0  0  0  0  0  0  0  0  0
    2.8384    0.5623   -3.2378 H   0  0  0  0  0  0  0  0  0  0  0  0
    3.4226    1.7484   -4.4166 H   0  0  0  0  0  0  0  0  0  0  0  0
    1.9111    2.0394   -3.5408 H   0  0  0  0  0  0  0  0  0  0  0  0
    2.8536    4.8655   -0.0128 H   0  0  0  0  0  0  0  0  0  0  0  0
    0.8988    6.3830    0.0535 H   0  0  0  0  0  0  0  0  0  0  0  0
   -1.3744    5.4713   -0.4467 H   0  0  0  0  0  0  0  0  0  0  0  0
   -1.5733    3.0448   -0.9999 H   0  0  0  0  0  0  0  0  0  0  0  0
    0.4286    0.7748    1.9476 H   0  0  0  0  0  0  0  0  0  0  0  0
    0.5186    0.5289    4.3993 H   0  0  0  0  0  0  0  0  0  0  0  0
    2.6592   -0.0126    5.5273 H   0  0  0  0  0  0  0  0  0  0  0  0
    4.7275   -0.3069    4.1876 H   0  0  0  0  0  0  0  0  0  0  0  0
    4.6460   -0.0998    1.7258 H   0  0  0  0  0  0  0  0  0  0  0  0
  1  2  1  0  0  0  0
  1 26  1  0  0  0  0
  1 27  1  0  0  0  0
  1 28  1  0  0  0  0
  2 20  1  0  0  0  0
  2  4  1  0  0  0  0
  2  3  2  0  0  0  0
  4 14  1  0  0  0  0
  4  5  1  0  0  0  0
  4 29  1  0  0  0  0
  5 13  1  0  0  0  0
  5  7  1  0  0  0  0
  5  6  2  0  0  0  0
  7  8  2  0  0  0  0
  7 12  1  0  0  0  0
  8  9  1  0  0  0  0
  8 30  1  0  0  0  0
  9 10  2  0  0  0  0
  9 31  1  0  0  0  0
 10 11  1  0  0  0  0
 10 32  1  0  0  0  0
 11 12  2  0  0  0  0
 11 33  1  0  0  0  0
 12 34  1  0  0  0  0
 13 35  1  0  0  0  0
 13 36  1  0  0  0  0
 13 37  1  0  0  0  0
 14 15  2  0  0  0  0
 14 19  1  0  0  0  0
 15 16  1  0  0  0  0
 15 38  1  0  0  0  0
 16 17  2  0  0  0  0
 16 39  1  0  0  0  0
 17 18  1  0  0  0  0
 17 40  1  0  0  0  0
 18 19  2  0  0  0  0
 18 41  1  0  0  0  0
 20 21  2  0  0  0  0
 20 25  1  0  0  0  0
 21 22  1  0  0  0  0
 21 42  1  0  0  0  0
 22 23  2  0  0  0  0
 22 43  1  0  0  0  0
 23 24  1  0  0  0  0
 23 44  1  0  0  0  0
 24 25  2  0  0  0  0
 24 45  1  0  0  0  0
 25 46  1  0  0  0  0
M  END
$$$$