9845037 9845036
 OpenBabel01211413583D

 24 25  0  0  0  0  0  0  0  0999 V2000
    0.7396    0.0173    0.2815 S   0  0  0  0  0  0  0  0  0  0  0  0
    2.4174   -0.0229    0.1396 C   0  0  0  0  0  0  0  0  0  0  0  0
    3.2314    1.2152    0.0505 C   0  0  0  0  0  0  0  0  0  0  0  0
    4.5644    1.1230   -0.0616 C   0  0  0  0  0  0  0  0  0  0  0  0
    5.4595    2.3170   -0.1550 C   0  0  0  0  0  0  0  0  0  0  0  0
    5.2359   -0.0857   -0.1005 O   0  0  0  0  0  0  0  0  0  0  0  0
    4.5114   -1.2638   -0.0289 C   0  0  0  0  0  0  0  0  0  0  0  0
    3.1761   -1.2979    0.0949 C   0  0  0  0  0  0  0  0  0  0  0  0
    5.3318   -2.4898   -0.0698 C   0  0  0  0  0  0  0  0  0  0  0  0
    6.5513   -2.5406    0.6225 C   0  0  0  0  0  0  0  0  0  0  0  0
    7.3463   -3.6891    0.5896 C   0  0  0  0  0  0  0  0  0  0  0  0
    6.9356   -4.8006   -0.1422 C   0  0  0  0  0  0  0  0  0  0  0  0
    5.7332   -4.7633   -0.8442 C   0  0  0  0  0  0  0  0  0  0  0  0
    4.9376   -3.6145   -0.8112 C   0  0  0  0  0  0  0  0  0  0  0  0
    2.7214    2.1716    0.0794 H   0  0  0  0  0  0  0  0  0  0  0  0
    6.1761    2.3174    0.6726 H   0  0  0  0  0  0  0  0  0  0  0  0
    4.8988    3.2566   -0.1154 H   0  0  0  0  0  0  0  0  0  0  0  0
    6.0184    2.2974   -1.0961 H   0  0  0  0  0  0  0  0  0  0  0  0
    2.6204   -2.2248    0.1765 H   0  0  0  0  0  0  0  0  0  0  0  0
    6.8903   -1.6838    1.2013 H   0  0  0  0  0  0  0  0  0  0  0  0
    8.2862   -3.7136    1.1348 H   0  0  0  0  0  0  0  0  0  0  0  0
    7.5546   -5.6937   -0.1693 H   0  0  0  0  0  0  0  0  0  0  0  0
    5.4153   -5.6268   -1.4232 H   0  0  0  0  0  0  0  0  0  0  0  0
    4.0132   -3.6063   -1.3840 H   0  0  0  0  0  0  0  0  0  0  0  0
  1  2  2  0  0  0  0
  2  8  1  0  0  0  0
  2  3  1  0  0  0  0
  3  4  2  0  0  0  0
  3 15  1  0  0  0  0
  4  6  1  0  0  0  0
  4  5  1  0  0  0  0
  5 16  1  0  0  0  0
  5 17  1  0  0  0  0
  5 18  1  0  0  0  0
  6  7  1  0  0  0  0
  7  8  2  0  0  0  0
  7  9  1  0  0  0  0
  8 19  1  0  0  0  0
  9 10  2  0  0  0  0
  9 14  1  0  0  0  0
 10 11  1  0  0  0  0
 10 20  1  0  0  0  0
 11 12  2  0  0  0  0
 11 21  1  0  0  0  0
 12 13  1  0  0  0  0
 12 22  1  0  0  0  0
 13 14  2  0  0  0  0
 13 23  1  0  0  0  0
 14 24  1  0  0  0  0
M  END
$$$$