36471 36470
 OpenBabel01211413143D

 25 26  0  0  0  0  0  0  0  0999 V2000
    5.2567    1.1464    0.5463 C   0  0  0  0  0  0  0  0  0  0  0  0
    3.9330    0.9182   -0.1587 C   0  0  0  0  0  0  0  0  0  0  0  0
    4.1485    0.5482   -1.5274 O   0  0  0  0  0  0  0  0  0  0  0  0
    4.3627   -0.7760   -1.7529 C   0  0  0  0  0  0  0  0  0  0  0  0
    4.4225   -1.6435   -0.8922 O   0  0  0  0  0  0  0  0  0  0  0  0
    4.4981   -1.0280   -3.1656 C   0  0  0  0  0  0  0  0  0  0  0  0
    4.4476   -0.1783   -4.2568 C   0  0  0  0  0  0  0  0  0  0  0  0
    4.6089   -0.9513   -5.4445 C   0  0  0  0  0  0  0  0  0  0  0  0
    4.7690   -2.2792   -5.0381 C   0  0  0  0  0  0  0  0  0  0  0  0
    4.7085   -2.2932   -3.6638 N   0  0  0  0  0  0  0  0  0  0  0  0
    4.7912   -3.1244   -3.0902 H   0  0  0  0  0  0  0  0  0  0  0  0
    4.9482   -3.3256   -5.9539 C   0  0  0  0  0  0  0  0  0  0  0  0
    5.1408   -4.9464   -5.4179 Cl  0  0  0  0  0  0  0  0  0  0  0  0
    4.9639   -3.0252   -7.3200 C   0  0  0  0  0  0  0  0  0  0  0  0
    4.8077   -1.7125   -7.7605 C   0  0  0  0  0  0  0  0  0  0  0  0
    4.6337   -0.6882   -6.8289 C   0  0  0  0  0  0  0  0  0  0  0  0
    4.4342    0.9404   -7.3054 Cl  0  0  0  0  0  0  0  0  0  0  0  0
    5.0941    1.4781    1.5757 H   0  0  0  0  0  0  0  0  0  0  0  0
    5.8472    1.9034    0.0202 H   0  0  0  0  0  0  0  0  0  0  0  0
    5.8564    0.2311    0.5658 H   0  0  0  0  0  0  0  0  0  0  0  0
    3.3565    1.8491   -0.1671 H   0  0  0  0  0  0  0  0  0  0  0  0
    3.3248    0.1698    0.3624 H   0  0  0  0  0  0  0  0  0  0  0  0
    4.2957    0.8935   -4.2068 H   0  0  0  0  0  0  0  0  0  0  0  0
    5.0979   -3.8216   -8.0488 H   0  0  0  0  0  0  0  0  0  0  0  0
    4.8199   -1.4902   -8.8239 H   0  0  0  0  0  0  0  0  0  0  0  0
  1  2  1  0  0  0  0
  1 18  1  0  0  0  0
  1 19  1  0  0  0  0
  1 20  1  0  0  0  0
  2  3  1  0  0  0  0
  2 21  1  0  0  0  0
  2 22  1  0  0  0  0
  3  4  1  0  0  0  0
  4  6  1  0  0  0  0
  4  5  2  0  0  0  0
  6  7  2  0  0  0  0
  6 10  1  0  0  0  0
  7  8  1  0  0  0  0
  7 23  1  0  0  0  0
  8 16  1  0  0  0  0
  8  9  2  0  0  0  0
  9 10  1  0  0  0  0
  9 12  1  0  0  0  0
 10 11  1  0  0  0  0
 12 14  2  0  0  0  0
 12 13  1  0  0  0  0
 14 15  1  0  0  0  0
 14 24  1  0  0  0  0
 15 16  2  0  0  0  0
 15 25  1  0  0  0  0
 16 17  1  0  0  0  0
M  END
$$$$