3034141 3034140
 OpenBabel01211413513D

 51 55  0  0  0  0  0  0  0  0999 V2000
    0.0156    1.5023    2.7975 C   0  0  0  0  0  0  0  0  0  0  0  0
    1.3225    1.0409    2.1744 C   0  0  0  0  0  0  0  0  0  0  0  0
    2.2144    0.3581    3.2049 C   0  0  0  0  0  0  0  0  0  0  0  0
    3.4156   -0.0750    2.5644 O   0  0  0  0  0  0  0  0  0  0  0  0
    4.3501   -0.6622    3.3770 C   0  0  0  0  0  0  0  0  0  0  0  0
    4.1730   -0.9603    4.7300 C   0  0  0  0  0  0  0  0  0  0  0  0
    5.2061   -1.5453    5.4639 C   0  0  0  0  0  0  0  0  0  0  0  0
    6.4328   -1.8371    4.8568 C   0  0  0  0  0  0  0  0  0  0  0  0
    6.6003   -1.5640    3.4987 C   0  0  0  0  0  0  0  0  0  0  0  0
    5.5635   -0.9822    2.7567 C   0  0  0  0  0  0  0  0  0  0  0  0
    7.7901   -1.8658    2.8947 O   0  0  0  0  0  0  0  0  0  0  0  0
    7.5017   -2.3937    5.6989 C   0  0  0  0  0  0  0  0  0  0  0  0
    8.4273   -1.6984    6.4080 C   0  0  0  0  0  0  0  0  0  0  0  0
    8.4674   -0.2556    6.3219 C   0  0  0  0  0  0  0  0  0  0  0  0
    7.4315    0.5620    6.2380 N   0  0  0  0  0  0  0  0  0  0  0  0
    7.8278    1.8816    6.1339 C   0  0  0  0  0  0  0  0  0  0  0  0
    9.2007    2.0958    6.2054 C   0  0  0  0  0  0  0  0  0  0  0  0
    9.9962    0.5779    6.2972 S   0  0  0  0  0  0  0  0  0  0  0  0
    9.7518    3.3881    6.1825 C   0  0  0  0  0  0  0  0  0  0  0  0
    8.8825    4.4756    6.0500 C   0  0  0  0  0  0  0  0  0  0  0  0
    7.5095    4.2811    5.9348 C   0  0  0  0  0  0  0  0  0  0  0  0
    6.9728    2.9904    5.9789 C   0  0  0  0  0  0  0  0  0  0  0  0
    9.2950   -2.5038    7.2382 C   0  0  0  0  0  0  0  0  0  0  0  0
    9.7286   -3.7234    6.9626 N   0  0  0  0  0  0  0  0  0  0  0  0
   10.5128   -4.2246    7.9861 C   0  0  0  0  0  0  0  0  0  0  0  0
   10.6718   -3.3813    9.0820 C   0  0  0  0  0  0  0  0  0  0  0  0
    9.7779   -1.9425    8.8125 S   0  0  0  0  0  0  0  0  0  0  0  0
   11.4533   -3.7434   10.1921 C   0  0  0  0  0  0  0  0  0  0  0  0
   12.0762   -4.9951   10.1822 C   0  0  0  0  0  0  0  0  0  0  0  0
   11.9205   -5.8599    9.1038 C   0  0  0  0  0  0  0  0  0  0  0  0
   11.1421   -5.4857    8.0032 C   0  0  0  0  0  0  0  0  0  0  0  0
   -0.6192    1.9813    2.0458 H   0  0  0  0  0  0  0  0  0  0  0  0
    0.1989    2.2248    3.5993 H   0  0  0  0  0  0  0  0  0  0  0  0
   -0.5361    0.6566    3.2204 H   0  0  0  0  0  0  0  0  0  0  0  0
    1.8503    1.8949    1.7343 H   0  0  0  0  0  0  0  0  0  0  0  0
    1.1182    0.3501    1.3465 H   0  0  0  0  0  0  0  0  0  0  0  0
    1.6811   -0.5053    3.6214 H   0  0  0  0  0  0  0  0  0  0  0  0
    2.4506    1.0749    4.0032 H   0  0  0  0  0  0  0  0  0  0  0  0
    3.2500   -0.7387    5.2551 H   0  0  0  0  0  0  0  0  0  0  0  0
    5.0595   -1.7400    6.5230 H   0  0  0  0  0  0  0  0  0  0  0  0
    5.6892   -0.7571    1.7042 H   0  0  0  0  0  0  0  0  0  0  0  0
    7.7396   -1.6037    1.9616 H   0  0  0  0  0  0  0  0  0  0  0  0
    7.4766   -3.4807    5.7446 H   0  0  0  0  0  0  0  0  0  0  0  0
   10.8239    3.5396    6.2615 H   0  0  0  0  0  0  0  0  0  0  0  0
    9.2874    5.4854    6.0288 H   0  0  0  0  0  0  0  0  0  0  0  0
    6.8471    5.1350    5.8145 H   0  0  0  0  0  0  0  0  0  0  0  0
    5.9025    2.8304    5.8944 H   0  0  0  0  0  0  0  0  0  0  0  0
   11.5712   -3.0703   11.0358 H   0  0  0  0  0  0  0  0  0  0  0  0
   12.6880   -5.2954   11.0305 H   0  0  0  0  0  0  0  0  0  0  0  0
   12.4066   -6.8326    9.1121 H   0  0  0  0  0  0  0  0  0  0  0  0
   11.0186   -6.1558    7.1583 H   0  0  0  0  0  0  0  0  0  0  0  0
  1  2  1  0  0  0  0
  1 32  1  0  0  0  0
  1 33  1  0  0  0  0
  1 34  1  0  0  0  0
  2  3  1  0  0  0  0
  2 35  1  0  0  0  0
  2 36  1  0  0  0  0
  3  4  1  0  0  0  0
  3 37  1  0  0  0  0
  3 38  1  0  0  0  0
  4  5  1  0  0  0  0
  5  6  2  0  0  0  0
  5 10  1  0  0  0  0
  6  7  1  0  0  0  0
  6 39  1  0  0  0  0
  7  8  2  0  0  0  0
  7 40  1  0  0  0  0
  8  9  1  0  0  0  0
  8 12  1  0  0  0  0
  9 10  2  0  0  0  0
  9 11  1  0  0  0  0
 10 41  1  0  0  0  0
 11 42  1  0  0  0  0
 12 13  2  3  0  0  0
 12 43  1  0  0  0  0
 13 23  1  0  0  0  0
 13 14  1  0  0  0  0
 14 15  2  0  0  0  0
 14 18  1  0  0  0  0
 15 16  1  0  0  0  0
 16 22  1  0  0  0  0
 16 17  2  0  0  0  0
 17 18  1  0  0  0  0
 17 19  1  0  0  0  0
 19 20  2  0  0  0  0
 19 44  1  0  0  0  0
 20 21  1  0  0  0  0
 20 45  1  0  0  0  0
 21 22  2  0  0  0  0
 21 46  1  0  0  0  0
 22 47  1  0  0  0  0
 23 24  2  0  0  0  0
 23 27  1  0  0  0  0
 24 25  1  0  0  0  0
 25 31  1  0  0  0  0
 25 26  2  0  0  0  0
 26 27  1  0  0  0  0
 26 28  1  0  0  0  0
 28 29  2  0  0  0  0
 28 48  1  0  0  0  0
 29 30  1  0  0  0  0
 29 49  1  0  0  0  0
 30 31  2  0  0  0  0
 30 50  1  0  0  0  0
 31 51  1  0  0  0  0
M  END
$$$$