443141 443140
 OpenBabel01211413163D

 46 49  0  0  0  0  0  0  0  0999 V2000
    6.6676    7.5242   -3.1385 O   0  0  0  0  0  0  0  0  0  0  0  0
    7.2074    6.2762   -3.0472 C   0  0  0  0  0  0  0  0  0  0  0  0
    8.1440    5.8220   -3.9708 C   0  0  0  0  0  0  0  0  0  0  0  0
    8.6854    4.5399   -3.8301 C   0  0  0  0  0  0  0  0  0  0  0  0
    8.2959    3.7247   -2.7562 C   0  0  0  0  0  0  0  0  0  0  0  0
    7.3275    4.1866   -1.8544 C   0  0  0  0  0  0  0  0  0  0  0  0
    6.7875    5.4658   -1.9988 C   0  0  0  0  0  0  0  0  0  0  0  0
    8.8744    2.3670   -2.5331 C   0  0  0  0  0  0  0  0  0  0  0  0
    8.1605    1.4974   -2.0444 O   0  0  0  0  0  0  0  0  0  0  0  0
   10.2109    2.2359   -2.8905 N   0  0  0  0  0  0  0  0  0  0  0  0
   10.9709    1.0986   -2.8435 N   0  0  0  0  0  0  0  0  0  0  0  0
   10.6850    0.1790   -1.9753 C   0  0  0  0  0  0  0  0  0  0  0  0
   11.4632   -1.0803   -1.9127 C   0  0  0  0  0  0  0  0  0  0  0  0
   12.5275   -1.2861   -2.7999 C   0  0  0  0  0  0  0  0  0  0  0  0
   13.2622   -2.4733   -2.7550 C   0  0  0  0  0  0  0  0  0  0  0  0
   12.9391   -3.4598   -1.8250 C   0  0  0  0  0  0  0  0  0  0  0  0
   11.8767   -3.2683   -0.9421 C   0  0  0  0  0  0  0  0  0  0  0  0
   11.1476   -2.0739   -0.9782 C   0  0  0  0  0  0  0  0  0  0  0  0
    9.9891   -1.9232   -0.1890 O   0  0  0  0  0  0  0  0  0  0  0  0
    9.9667   -2.3769    1.1319 C   0  0  0  0  0  0  0  0  0  0  0  0
   10.9685   -2.6170    1.7955 O   0  0  0  0  0  0  0  0  0  0  0  0
    8.5956   -2.6176    1.5422 C   0  0  0  0  0  0  0  0  0  0  0  0
    7.3103   -1.6977    0.8905 S   0  0  0  0  0  0  0  0  0  0  0  0
    6.1142   -2.6179    1.7091 C   0  0  0  0  0  0  0  0  0  0  0  0
    6.6903   -3.5985    2.5211 C   0  0  0  0  0  0  0  0  0  0  0  0
    8.1282   -3.5601    2.4344 C   0  0  0  0  0  0  0  0  0  0  0  0
    9.1110   -4.6714    3.3087 Cl  0  0  0  0  0  0  0  0  0  0  0  0
    5.8142   -4.4460    3.2504 C   0  0  0  0  0  0  0  0  0  0  0  0
    4.4272   -4.3018    3.1472 C   0  0  0  0  0  0  0  0  0  0  0  0
    3.8859   -3.3162    2.3357 C   0  0  0  0  0  0  0  0  0  0  0  0
    4.7173   -2.4599    1.6120 C   0  0  0  0  0  0  0  0  0  0  0  0
    7.0722    7.9898   -3.8885 H   0  0  0  0  0  0  0  0  0  0  0  0
    8.4576    6.4439   -4.8040 H   0  0  0  0  0  0  0  0  0  0  0  0
    9.3879    4.1881   -4.5804 H   0  0  0  0  0  0  0  0  0  0  0  0
    6.9992    3.5548   -1.0315 H   0  0  0  0  0  0  0  0  0  0  0  0
    6.0448    5.8285   -1.2934 H   0  0  0  0  0  0  0  0  0  0  0  0
   10.6796    3.0003   -3.3616 H   0  0  0  0  0  0  0  0  0  0  0  0
    9.8892    0.2958   -1.2239 H   0  0  0  0  0  0  0  0  0  0  0  0
   12.7849   -0.5297   -3.5380 H   0  0  0  0  0  0  0  0  0  0  0  0
   14.0812   -2.6310   -3.4521 H   0  0  0  0  0  0  0  0  0  0  0  0
   13.5063   -4.3873   -1.7950 H   0  0  0  0  0  0  0  0  0  0  0  0
   11.6234   -4.0622   -0.2447 H   0  0  0  0  0  0  0  0  0  0  0  0
    6.2198   -5.2286    3.8881 H   0  0  0  0  0  0  0  0  0  0  0  0
    3.7730   -4.9686    3.7038 H   0  0  0  0  0  0  0  0  0  0  0  0
    2.8064   -3.2096    2.2581 H   0  0  0  0  0  0  0  0  0  0  0  0
    4.2906   -1.6906    0.9736 H   0  0  0  0  0  0  0  0  0  0  0  0
  1  2  1  0  0  0  0
  1 32  1  0  0  0  0
  2  3  2  0  0  0  0
  2  7  1  0  0  0  0
  3  4  1  0  0  0  0
  3 33  1  0  0  0  0
  4  5  2  0  0  0  0
  4 34  1  0  0  0  0
  5  6  1  0  0  0  0
  5  8  1  0  0  0  0
  6  7  2  0  0  0  0
  6 35  1  0  0  0  0
  7 36  1  0  0  0  0
  8 10  1  0  0  0  0
  8  9  2  0  0  0  0
 10 11  1  0  0  0  0
 10 37  1  0  0  0  0
 11 12  2  0  0  0  0
 12 13  1  0  0  0  0
 12 38  1  0  0  0  0
 13 14  2  0  0  0  0
 13 18  1  0  0  0  0
 14 15  1  0  0  0  0
 14 39  1  0  0  0  0
 15 16  2  0  0  0  0
 15 40  1  0  0  0  0
 16 17  1  0  0  0  0
 16 41  1  0  0  0  0
 17 18  2  0  0  0  0
 17 42  1  0  0  0  0
 18 19  1  0  0  0  0
 19 20  1  0  0  0  0
 20 22  1  0  0  0  0
 20 21  2  0  0  0  0
 22 23  1  0  0  0  0
 22 26  2  0  0  0  0
 23 24  1  0  0  0  0
 24 31  1  0  0  0  0
 24 25  2  0  0  0  0
 25 26  1  0  0  0  0
 25 28  1  0  0  0  0
 26 27  1  0  0  0  0
 28 29  2  0  0  0  0
 28 43  1  0  0  0  0
 29 30  1  0  0  0  0
 29 44  1  0  0  0  0
 30 31  2  0  0  0  0
 30 45  1  0  0  0  0
 31 46  1  0  0  0  0
M  END
$$$$