489007 489006
 OpenBabel01211413183D

 22 22  0  0  0  0  0  0  0  0999 V2000
    1.8406    1.2282   -0.5560 O   0  0  0  0  0  0  0  0  0  0  0  0
    2.3184    0.9541   -1.6537 C   0  0  0  0  0  0  0  0  0  0  0  0
    1.9435    1.7627   -2.8493 C   0  0  0  0  0  0  0  0  0  0  0  0
    2.1687    1.3126   -4.1561 C   0  0  0  0  0  0  0  0  0  0  0  0
    1.8326    2.1258   -5.2419 C   0  0  0  0  0  0  0  0  0  0  0  0
    1.2687    3.3832   -5.0288 C   0  0  0  0  0  0  0  0  0  0  0  0
    1.0280    3.8291   -3.7306 C   0  0  0  0  0  0  0  0  0  0  0  0
    1.3600    3.0198   -2.6430 C   0  0  0  0  0  0  0  0  0  0  0  0
    3.2893   -0.1824   -1.8182 C   0  0  0  0  0  0  0  0  0  0  0  0
    3.9703   -0.5529   -0.5244 C   0  0  0  0  0  0  0  0  0  0  0  0
    5.1828   -0.3511   -0.3898 O   0  0  0  0  0  0  0  0  0  0  0  0
    3.1035   -1.1906    0.5511 C   0  0  0  0  0  0  0  0  0  0  0  0
    3.6736   -2.3313    1.0375 F   0  0  0  0  0  0  0  0  0  0  0  0
    2.8950   -0.3840    1.6243 F   0  0  0  0  0  0  0  0  0  0  0  0
    1.8792   -1.5686    0.0867 F   0  0  0  0  0  0  0  0  0  0  0  0
    2.5968    0.3361   -4.3602 H   0  0  0  0  0  0  0  0  0  0  0  0
    2.0112    1.7800   -6.2579 H   0  0  0  0  0  0  0  0  0  0  0  0
    1.0136    4.0165   -5.8757 H   0  0  0  0  0  0  0  0  0  0  0  0
    0.5853    4.8081   -3.5632 H   0  0  0  0  0  0  0  0  0  0  0  0
    1.1704    3.3807   -1.6332 H   0  0  0  0  0  0  0  0  0  0  0  0
    4.0760    0.1027   -2.5253 H   0  0  0  0  0  0  0  0  0  0  0  0
    2.7710   -1.0623   -2.2106 H   0  0  0  0  0  0  0  0  0  0  0  0
  1  2  2  0  0  0  0
  2  9  1  0  0  0  0
  2  3  1  0  0  0  0
  3  4  2  0  0  0  0
  3  8  1  0  0  0  0
  4  5  1  0  0  0  0
  4 16  1  0  0  0  0
  5  6  2  0  0  0  0
  5 17  1  0  0  0  0
  6  7  1  0  0  0  0
  6 18  1  0  0  0  0
  7  8  2  0  0  0  0
  7 19  1  0  0  0  0
  8 20  1  0  0  0  0
  9 10  1  0  0  0  0
  9 21  1  0  0  0  0
  9 22  1  0  0  0  0
 10 12  1  0  0  0  0
 10 11  2  0  0  0  0
 12 15  1  0  0  0  0
 12 14  1  0  0  0  0
 12 13  1  0  0  0  0
M  END
$$$$