1186689 1186688
 OpenBabel01211413403D

 36 37  0  0  1  0  0  0  0  0999 V2000
    0.5185    0.3991   -0.8155 C   0  0  0  0  0  0  0  0  0  0  0  0
    1.9009    0.2912   -0.1772 C   0  0  3  0  0  0  0  0  0  0  0  0
    2.4641   -1.1315   -0.1927 C   0  0  0  0  0  0  0  0  0  0  0  0
    3.0331   -1.5223   -1.5529 C   0  0  0  0  0  0  0  0  0  0  0  0
    4.0084   -0.4597   -2.0907 C   0  0  3  0  0  0  0  0  0  0  0  0
    3.2851    0.9223   -2.0644 C   0  0  3  0  0  0  0  0  0  0  0  0
    2.8060    1.2391   -0.7472 O   0  0  0  0  0  0  0  0  0  0  0  0
    4.1048    2.0713   -2.6442 C   0  0  0  0  0  0  0  0  0  0  0  0
    4.3609    3.2412   -1.9118 C   0  0  0  0  0  0  0  0  0  0  0  0
    5.0935    4.2927   -2.4684 C   0  0  0  0  0  0  0  0  0  0  0  0
    5.5773    4.1949   -3.7701 C   0  0  0  0  0  0  0  0  0  0  0  0
    5.3250    3.0481   -4.5180 C   0  0  0  0  0  0  0  0  0  0  0  0
    4.5904    1.9976   -3.9614 C   0  0  0  0  0  0  0  0  0  0  0  0
    5.3718   -0.5746   -1.3898 C   0  0  0  0  0  0  0  0  0  0  0  0
    5.7653    0.1734   -0.3443 C   0  0  0  0  0  0  0  0  0  0  0  0
    6.3112   -1.6004   -1.9716 C   0  0  0  0  0  0  0  0  0  0  0  0
    0.1799    1.4412   -0.8131 H   0  0  0  0  0  0  0  0  0  0  0  0
   -0.2112   -0.2038   -0.2650 H   0  0  0  0  0  0  0  0  0  0  0  0
    0.5136    0.0659   -1.8569 H   0  0  0  0  0  0  0  0  0  0  0  0
    1.7847    0.5881    0.8723 H   0  0  0  0  0  0  0  0  0  0  0  0
    1.6986   -1.8520    0.1156 H   0  0  0  0  0  0  0  0  0  0  0  0
    3.2683   -1.1971    0.5493 H   0  0  0  0  0  0  0  0  0  0  0  0
    3.5123   -2.5054   -1.4834 H   0  0  0  0  0  0  0  0  0  0  0  0
    2.2075   -1.6382   -2.2662 H   0  0  0  0  0  0  0  0  0  0  0  0
    4.1925   -0.7011   -3.1465 H   0  0  0  0  0  0  0  0  0  0  0  0
    2.4040    0.8595   -2.7165 H   0  0  0  0  0  0  0  0  0  0  0  0
    3.9900    3.3425   -0.8941 H   0  0  0  0  0  0  0  0  0  0  0  0
    5.2827    5.1881   -1.8828 H   0  0  0  0  0  0  0  0  0  0  0  0
    6.1474    5.0133   -4.2021 H   0  0  0  0  0  0  0  0  0  0  0  0
    5.6978    2.9713   -5.5366 H   0  0  0  0  0  0  0  0  0  0  0  0
    4.3981    1.1198   -4.5736 H   0  0  0  0  0  0  0  0  0  0  0  0
    5.1254    0.9267    0.1059 H   0  0  0  0  0  0  0  0  0  0  0  0
    6.7479    0.0559    0.1033 H   0  0  0  0  0  0  0  0  0  0  0  0
    5.8821   -2.6029   -1.8939 H   0  0  0  0  0  0  0  0  0  0  0  0
    7.2770   -1.6131   -1.4581 H   0  0  0  0  0  0  0  0  0  0  0  0
    6.5026   -1.3824   -3.0266 H   0  0  0  0  0  0  0  0  0  0  0  0
  1  2  1  0  0  0  0
  1 17  1  0  0  0  0
  1 18  1  0  0  0  0
  1 19  1  0  0  0  0
  2  7  1  0  0  0  0
  2  3  1  0  0  0  0
  2 20  1  0  0  0  0
  3  4  1  0  0  0  0
  3 21  1  0  0  0  0
  3 22  1  0  0  0  0
  4  5  1  0  0  0  0
  4 23  1  0  0  0  0
  4 24  1  0  0  0  0
  5  6  1  0  0  0  0
  5 14  1  0  0  0  0
  5 25  1  0  0  0  0
  6  7  1  0  0  0  0
  6  8  1  0  0  0  0
  6 26  1  0  0  0  0
  8  9  2  0  0  0  0
  8 13  1  0  0  0  0
  9 10  1  0  0  0  0
  9 27  1  0  0  0  0
 10 11  2  0  0  0  0
 10 28  1  0  0  0  0
 11 12  1  0  0  0  0
 11 29  1  0  0  0  0
 12 13  2  0  0  0  0
 12 30  1  0  0  0  0
 13 31  1  0  0  0  0
 14 16  1  0  0  0  0
 14 15  2  0  0  0  0
 15 32  1  0  0  0  0
 15 33  1  0  0  0  0
 16 34  1  0  0  0  0
 16 35  1  0  0  0  0
 16 36  1  0  0  0  0
M  END
$$$$