7398490 7398489
 OpenBabel01211413573D

 20 21  0  0  1  0  0  0  0  0999 V2000
    3.9814   -2.0788   -0.3955 Cl  0  0  0  0  0  0  0  0  0  0  0  0
    3.5162   -0.3910   -0.0748 C   0  0  0  0  0  0  0  0  0  0  0  0
    3.4441    0.4220   -1.3656 C   0  0  3  0  0  0  0  0  0  0  0  0
    3.0786    1.9172   -1.0802 C   0  0  0  0  0  0  0  0  0  0  0  0
    1.8317    2.1456   -1.9618 C   0  0  3  0  0  0  0  0  0  0  0  0
    1.1132    0.8034   -1.8060 C   0  0  0  0  0  0  0  0  0  0  0  0
    2.3035   -0.0094   -2.3290 C   0  0  3  0  0  0  0  0  0  0  0  0
    2.5238    0.7294   -3.6328 C   0  0  0  0  0  0  0  0  0  0  0  0
    2.2487    2.0233   -3.4081 C   0  0  0  0  0  0  0  0  0  0  0  0
    4.2692    0.0288    0.5997 H   0  0  0  0  0  0  0  0  0  0  0  0
    2.5601   -0.4098    0.4563 H   0  0  0  0  0  0  0  0  0  0  0  0
    4.4192    0.3739   -1.8696 H   0  0  0  0  0  0  0  0  0  0  0  0
    3.9038    2.5868   -1.3472 H   0  0  0  0  0  0  0  0  0  0  0  0
    2.8349    2.0757   -0.0234 H   0  0  0  0  0  0  0  0  0  0  0  0
    1.2331    3.0262   -1.7273 H   0  0  0  0  0  0  0  0  0  0  0  0
    0.8422    0.5745   -0.7702 H   0  0  0  0  0  0  0  0  0  0  0  0
    0.2164    0.7141   -2.4329 H   0  0  0  0  0  0  0  0  0  0  0  0
    2.1187   -1.0776   -2.4438 H   0  0  0  0  0  0  0  0  0  0  0  0
    2.8949    0.2957   -4.5490 H   0  0  0  0  0  0  0  0  0  0  0  0
    2.3512    2.8374   -4.1099 H   0  0  0  0  0  0  0  0  0  0  0  0
  1  2  1  0  0  0  0
  2  3  1  0  0  0  0
  2 10  1  0  0  0  0
  2 11  1  0  0  0  0
  3  4  1  0  0  0  0
  3  7  1  0  0  0  0
  3 12  1  0  0  0  0
  4  5  1  0  0  0  0
  4 13  1  0  0  0  0
  4 14  1  0  0  0  0
  5  9  1  0  0  0  0
  5  6  1  0  0  0  0
  5 15  1  0  0  0  0
  6  7  1  0  0  0  0
  6 16  1  0  0  0  0
  6 17  1  0  0  0  0
  7  8  1  0  0  0  0
  7 18  1  0  0  0  0
  8  9  2  0  0  0  0
  8 19  1  0  0  0  0
  9 20  1  0  0  0  0
M  END
$$$$