475369 475368
 OpenBabel01211413173D

 16 15  0  0  0  0  0  0  0  0999 V2000
    1.0659   -0.0645   -0.0392 C   0  0  0  0  0  0  0  0  0  0  0  0
    2.5778   -0.0193   -0.1366 C   0  0  0  0  0  0  0  0  0  0  0  0
    3.1253   -0.4345    1.1116 O   0  0  0  0  0  0  0  0  0  0  0  0
    4.5494   -0.4445    1.0807 C   0  0  0  0  0  0  0  0  0  0  0  0
    5.0268   -0.8840    2.4281 C   0  0  0  0  0  0  0  0  0  0  0  0
    5.8083   -1.9475    2.6498 C   0  0  0  0  0  0  0  0  0  0  0  0
    0.6057    0.2615   -0.9761 H   0  0  0  0  0  0  0  0  0  0  0  0
    0.7110    0.5790    0.7725 H   0  0  0  0  0  0  0  0  0  0  0  0
    0.7248   -1.0803    0.1868 H   0  0  0  0  0  0  0  0  0  0  0  0
    2.9062    1.0012   -0.3617 H   0  0  0  0  0  0  0  0  0  0  0  0
    2.9178   -0.6903   -0.9332 H   0  0  0  0  0  0  0  0  0  0  0  0
    4.9215    0.5660    0.8758 H   0  0  0  0  0  0  0  0  0  0  0  0
    4.8987   -1.1202    0.2916 H   0  0  0  0  0  0  0  0  0  0  0  0
    4.6938   -0.2835    3.2702 H   0  0  0  0  0  0  0  0  0  0  0  0
    6.1528   -2.5823    1.8409 H   0  0  0  0  0  0  0  0  0  0  0  0
    6.1096   -2.2107    3.6588 H   0  0  0  0  0  0  0  0  0  0  0  0
  1  2  1  0  0  0  0
  1  7  1  0  0  0  0
  1  8  1  0  0  0  0
  1  9  1  0  0  0  0
  2  3  1  0  0  0  0
  2 10  1  0  0  0  0
  2 11  1  0  0  0  0
  3  4  1  0  0  0  0
  4  5  1  0  0  0  0
  4 12  1  0  0  0  0
  4 13  1  0  0  0  0
  5  6  2  0  0  0  0
  5 14  1  0  0  0  0
  6 15  1  0  0  0  0
  6 16  1  0  0  0  0
M  END
$$$$