452151 452150
 OpenBabel01211413173D

 44 45  0  0  0  0  0  0  0  0999 V2000
    3.3356    2.2105   -1.6970 O   0  0  0  0  0  0  0  0  0  0  0  0
    3.3463    1.6385   -0.6055 C   0  0  0  0  0  0  0  0  0  0  0  0
    2.6825    2.2093    0.6507 C   0  0  0  0  0  0  0  0  0  0  0  0
    2.1852    3.5599    0.4359 N   0  0  0  0  0  0  0  0  0  0  0  0
    2.8278    4.6519    0.9737 C   0  0  0  0  0  0  0  0  0  0  0  0
    3.8315    4.5635    1.6743 O   0  0  0  0  0  0  0  0  0  0  0  0
    2.2352    5.9953    0.6944 C   0  0  0  0  0  0  0  0  0  0  0  0
    0.9368    6.1610    0.1901 C   0  0  0  0  0  0  0  0  0  0  0  0
    0.4085    7.4448    0.0113 C   0  0  0  0  0  0  0  0  0  0  0  0
    1.1697    8.5638    0.3447 C   0  0  0  0  0  0  0  0  0  0  0  0
    2.4582    8.4138    0.8509 C   0  0  0  0  0  0  0  0  0  0  0  0
    2.9893    7.1322    1.0247 C   0  0  0  0  0  0  0  0  0  0  0  0
    0.5042   10.1377    0.1486 Cl  0  0  0  0  0  0  0  0  0  0  0  0
    3.9148    0.3898   -0.4631 N   0  0  0  0  0  0  0  0  0  0  0  0
    3.8421   -0.2841    0.7124 N   0  0  0  0  0  0  0  0  0  0  0  0
    4.3986   -1.4524    0.7396 C   0  0  0  0  0  0  0  0  0  0  0  0
    4.3892   -2.2678    1.9719 C   0  0  0  0  0  0  0  0  0  0  0  0
    3.7765   -1.7978    3.1308 C   0  0  0  0  0  0  0  0  0  0  0  0
    3.7898   -2.5749    4.2960 C   0  0  0  0  0  0  0  0  0  0  0  0
    4.4242   -3.8282    4.3524 C   0  0  0  0  0  0  0  0  0  0  0  0
    5.0105   -4.2801    3.1532 C   0  0  0  0  0  0  0  0  0  0  0  0
    5.0021   -3.5156    1.9766 C   0  0  0  0  0  0  0  0  0  0  0  0
    4.4405   -4.6098    5.5164 N   0  0  0  0  0  0  0  0  0  0  0  0
    3.8538   -4.0687    6.7426 C   0  0  0  0  0  0  0  0  0  0  0  0
    5.5900   -5.4940    5.7189 C   0  0  0  0  0  0  0  0  0  0  0  0
    3.3894    2.1920    1.4853 H   0  0  0  0  0  0  0  0  0  0  0  0
    1.8132    1.5904    0.8946 H   0  0  0  0  0  0  0  0  0  0  0  0
    1.5931    3.6861   -0.3729 H   0  0  0  0  0  0  0  0  0  0  0  0
    0.3039    5.3098   -0.0409 H   0  0  0  0  0  0  0  0  0  0  0  0
   -0.6016    7.5626   -0.3727 H   0  0  0  0  0  0  0  0  0  0  0  0
    3.0509    9.2835    1.1220 H   0  0  0  0  0  0  0  0  0  0  0  0
    3.9920    7.0219    1.4345 H   0  0  0  0  0  0  0  0  0  0  0  0
    4.3592   -0.0195   -1.2772 H   0  0  0  0  0  0  0  0  0  0  0  0
    4.9018   -1.8824   -0.1450 H   0  0  0  0  0  0  0  0  0  0  0  0
    3.2861   -0.8272    3.1464 H   0  0  0  0  0  0  0  0  0  0  0  0
    3.2972   -2.1532    5.1668 H   0  0  0  0  0  0  0  0  0  0  0  0
    5.4789   -5.2585    3.1030 H   0  0  0  0  0  0  0  0  0  0  0  0
    5.4742   -3.9136    1.0834 H   0  0  0  0  0  0  0  0  0  0  0  0
    2.8029   -3.7971    6.5943 H   0  0  0  0  0  0  0  0  0  0  0  0
    4.4142   -3.1966    7.0977 H   0  0  0  0  0  0  0  0  0  0  0  0
    3.8605   -4.8179    7.5423 H   0  0  0  0  0  0  0  0  0  0  0  0
    5.6061   -6.3042    4.9833 H   0  0  0  0  0  0  0  0  0  0  0  0
    5.5466   -5.9802    6.7001 H   0  0  0  0  0  0  0  0  0  0  0  0
    6.5306   -4.9341    5.6705 H   0  0  0  0  0  0  0  0  0  0  0  0
  1  2  2  0  0  0  0
  2 14  1  0  0  0  0
  2  3  1  0  0  0  0
  3  4  1  0  0  0  0
  3 26  1  0  0  0  0
  3 27  1  0  0  0  0
  4  5  1  0  0  0  0
  4 28  1  0  0  0  0
  5  7  1  0  0  0  0
  5  6  2  0  0  0  0
  7  8  2  0  0  0  0
  7 12  1  0  0  0  0
  8  9  1  0  0  0  0
  8 29  1  0  0  0  0
  9 10  2  0  0  0  0
  9 30  1  0  0  0  0
 10 11  1  0  0  0  0
 10 13  1  0  0  0  0
 11 12  2  0  0  0  0
 11 31  1  0  0  0  0
 12 32  1  0  0  0  0
 14 15  1  0  0  0  0
 14 33  1  0  0  0  0
 15 16  2  0  0  0  0
 16 17  1  0  0  0  0
 16 34  1  0  0  0  0
 17 18  2  0  0  0  0
 17 22  1  0  0  0  0
 18 19  1  0  0  0  0
 18 35  1  0  0  0  0
 19 20  2  0  0  0  0
 19 36  1  0  0  0  0
 20 21  1  0  0  0  0
 20 23  1  0  0  0  0
 21 22  2  0  0  0  0
 21 37  1  0  0  0  0
 22 38  1  0  0  0  0
 23 25  1  0  0  0  0
 23 24  1  0  0  0  0
 24 39  1  0  0  0  0
 24 40  1  0  0  0  0
 24 41  1  0  0  0  0
 25 42  1  0  0  0  0
 25 43  1  0  0  0  0
 25 44  1  0  0  0  0
M  END
$$$$