13178225 13178224
 OpenBabel01211413593D

 49 52  0  0  0  0  0  0  0  0999 V2000
    0.8658    1.0919   -0.4149 C   0  0  0  0  0  0  0  0  0  0  0  0
   -0.1429    0.6128   -1.4496 C   0  0  0  0  0  0  0  0  0  0  0  0
   -0.2442   -0.9167   -1.4723 C   0  0  0  0  0  0  0  0  0  0  0  0
   -0.2468   -1.5530   -0.0977 C   0  0  0  0  0  0  0  0  0  0  0  0
    0.0810   -0.8458    1.0040 C   0  0  0  0  0  0  0  0  0  0  0  0
    0.4887    0.6000    0.9805 C   0  0  0  0  0  0  0  0  0  0  0  0
   -0.6905   -3.4000   -0.0247 Si  0  0  3  0  0  0  0  0  0  0  0  0
   -1.4975   -3.8893    1.6263 C   0  0  0  0  0  0  0  0  0  0  0  0
   -2.3804   -3.0038    2.2777 C   0  0  0  0  0  0  0  0  0  0  0  0
   -2.9852   -3.3504    3.4889 C   0  0  0  0  0  0  0  0  0  0  0  0
   -2.7311   -4.5899    4.0680 C   0  0  0  0  0  0  0  0  0  0  0  0
   -1.8715   -5.4842    3.4378 C   0  0  0  0  0  0  0  0  0  0  0  0
   -1.2597   -5.1393    2.2294 C   0  0  0  0  0  0  0  0  0  0  0  0
   -1.8759   -3.9594   -1.3935 C   0  0  0  0  0  0  0  0  0  0  0  0
   -3.1559   -4.4728   -1.1090 C   0  0  0  0  0  0  0  0  0  0  0  0
   -4.0166   -4.8768   -2.1338 C   0  0  0  0  0  0  0  0  0  0  0  0
   -3.6209   -4.7733   -3.4637 C   0  0  0  0  0  0  0  0  0  0  0  0
   -2.3589   -4.2751   -3.7711 C   0  0  0  0  0  0  0  0  0  0  0  0
   -1.4922   -3.8803   -2.7485 C   0  0  0  0  0  0  0  0  0  0  0  0
    0.8606   -4.4852   -0.1812 C   0  0  0  0  0  0  0  0  0  0  0  0
    2.0981   -4.0345    0.3178 C   0  0  0  0  0  0  0  0  0  0  0  0
    3.2402   -4.8362    0.2391 C   0  0  0  0  0  0  0  0  0  0  0  0
    3.1691   -6.1012   -0.3375 C   0  0  0  0  0  0  0  0  0  0  0  0
    1.9571   -6.5661   -0.8389 C   0  0  0  0  0  0  0  0  0  0  0  0
    0.8127   -5.7678   -0.7629 C   0  0  0  0  0  0  0  0  0  0  0  0
    0.9196    2.1864   -0.4189 H   0  0  0  0  0  0  0  0  0  0  0  0
    1.8646    0.7224   -0.6798 H   0  0  0  0  0  0  0  0  0  0  0  0
    0.1381    0.9763   -2.4448 H   0  0  0  0  0  0  0  0  0  0  0  0
   -1.1278    1.0406   -1.2223 H   0  0  0  0  0  0  0  0  0  0  0  0
    0.6048   -1.3167   -2.0422 H   0  0  0  0  0  0  0  0  0  0  0  0
   -1.1578   -1.1663   -2.0223 H   0  0  0  0  0  0  0  0  0  0  0  0
    0.0755   -1.3072    1.9913 H   0  0  0  0  0  0  0  0  0  0  0  0
   -0.3405    1.1989    1.3758 H   0  0  0  0  0  0  0  0  0  0  0  0
    1.3415    0.7481    1.6525 H   0  0  0  0  0  0  0  0  0  0  0  0
   -2.6095   -2.0284    1.8493 H   0  0  0  0  0  0  0  0  0  0  0  0
   -3.6570   -2.6503    3.9782 H   0  0  0  0  0  0  0  0  0  0  0  0
   -3.2025   -4.8594    5.0089 H   0  0  0  0  0  0  0  0  0  0  0  0
   -1.6734   -6.4548    3.8851 H   0  0  0  0  0  0  0  0  0  0  0  0
   -0.5951   -5.8702    1.7721 H   0  0  0  0  0  0  0  0  0  0  0  0
   -3.5112   -4.5719   -0.0839 H   0  0  0  0  0  0  0  0  0  0  0  0
   -4.9992   -5.2713   -1.8886 H   0  0  0  0  0  0  0  0  0  0  0  0
   -4.2937   -5.0832   -4.2580 H   0  0  0  0  0  0  0  0  0  0  0  0
   -2.0441   -4.1968   -4.8089 H   0  0  0  0  0  0  0  0  0  0  0  0
   -0.5072   -3.5082   -3.0283 H   0  0  0  0  0  0  0  0  0  0  0  0
    2.1911   -3.0545    0.7839 H   0  0  0  0  0  0  0  0  0  0  0  0
    4.1849   -4.4720    0.6344 H   0  0  0  0  0  0  0  0  0  0  0  0
    4.0569   -6.7249   -0.3933 H   0  0  0  0  0  0  0  0  0  0  0  0
    1.8976   -7.5550   -1.2864 H   0  0  0  0  0  0  0  0  0  0  0  0
   -0.1199   -6.1724   -1.1552 H   0  0  0  0  0  0  0  0  0  0  0  0
  1  2  1  0  0  0  0
  1  6  1  0  0  0  0
  1 26  1  0  0  0  0
  1 27  1  0  0  0  0
  2  3  1  0  0  0  0
  2 28  1  0  0  0  0
  2 29  1  0  0  0  0
  3  4  1  0  0  0  0
  3 30  1  0  0  0  0
  3 31  1  0  0  0  0
  4  5  2  0  0  0  0
  4  7  1  0  0  0  0
  5  6  1  0  0  0  0
  5 32  1  0  0  0  0
  6 33  1  0  0  0  0
  6 34  1  0  0  0  0
  7 20  1  0  0  0  0
  7 14  1  0  0  0  0
  7  8  1  0  0  0  0
  8  9  2  0  0  0  0
  8 13  1  0  0  0  0
  9 10  1  0  0  0  0
  9 35  1  0  0  0  0
 10 11  2  0  0  0  0
 10 36  1  0  0  0  0
 11 12  1  0  0  0  0
 11 37  1  0  0  0  0
 12 13  2  0  0  0  0
 12 38  1  0  0  0  0
 13 39  1  0  0  0  0
 14 15  2  0  0  0  0
 14 19  1  0  0  0  0
 15 16  1  0  0  0  0
 15 40  1  0  0  0  0
 16 17  2  0  0  0  0
 16 41  1  0  0  0  0
 17 18  1  0  0  0  0
 17 42  1  0  0  0  0
 18 19  2  0  0  0  0
 18 43  1  0  0  0  0
 19 44  1  0  0  0  0
 20 21  2  0  0  0  0
 20 25  1  0  0  0  0
 21 22  1  0  0  0  0
 21 45  1  0  0  0  0
 22 23  2  0  0  0  0
 22 46  1  0  0  0  0
 23 24  1  0  0  0  0
 23 47  1  0  0  0  0
 24 25  2  0  0  0  0
 24 48  1  0  0  0  0
 25 49  1  0  0  0  0
M  END
$$$$