4866696 4866695
 OpenBabel01211413543D

 26 26  0  0  0  0  0  0  0  0999 V2000
    4.5058   -1.9258   -2.4405 C   0  0  0  0  0  0  0  0  0  0  0  0
    5.2155   -1.1999   -3.4422 O   0  0  0  0  0  0  0  0  0  0  0  0
    5.0178    0.1551   -3.1669 N   0  0  0  0  0  0  0  0  0  0  0  0
    6.1175    0.9538   -2.9462 C   0  0  0  0  0  0  0  0  0  0  0  0
    7.3583    0.5752   -2.6058 C   0  0  0  0  0  0  0  0  0  0  0  0
    8.4724    1.5074   -2.3614 C   0  0  0  0  0  0  0  0  0  0  0  0
    8.1736    2.8226   -2.4774 N   0  0  0  0  0  0  0  0  0  0  0  0
    9.1745    3.6849   -2.2410 C   0  0  0  0  0  0  0  0  0  0  0  0
    8.8470    5.4266   -2.3560 S   0  0  0  0  0  0  0  0  0  0  0  0
    7.4754    5.3996   -3.5343 C   0  0  0  0  0  0  0  0  0  0  0  0
   10.4238    3.3119   -1.9018 N   0  0  0  0  0  0  0  0  0  0  0  0
   10.7208    1.9888   -1.7961 N   0  0  0  0  0  0  0  0  0  0  0  0
    9.7512    1.0785   -2.0247 C   0  0  0  0  0  0  0  0  0  0  0  0
   10.1440   -0.3572   -1.8913 C   0  0  0  0  0  0  0  0  0  0  0  0
    4.5698   -2.9904   -2.6810 H   0  0  0  0  0  0  0  0  0  0  0  0
    3.4504   -1.6357   -2.4237 H   0  0  0  0  0  0  0  0  0  0  0  0
    4.9613   -1.7620   -1.4591 H   0  0  0  0  0  0  0  0  0  0  0  0
    4.3249    0.5830   -3.7832 H   0  0  0  0  0  0  0  0  0  0  0  0
    5.8704    2.0072   -3.0621 H   0  0  0  0  0  0  0  0  0  0  0  0
    7.5587   -0.4838   -2.4942 H   0  0  0  0  0  0  0  0  0  0  0  0
    7.1888    6.4280   -3.7705 H   0  0  0  0  0  0  0  0  0  0  0  0
    6.6036    4.8925   -3.1113 H   0  0  0  0  0  0  0  0  0  0  0  0
    7.7733    4.9042   -4.4629 H   0  0  0  0  0  0  0  0  0  0  0  0
    9.9812   -0.8898   -2.8337 H   0  0  0  0  0  0  0  0  0  0  0  0
    9.5710   -0.8404   -1.0937 H   0  0  0  0  0  0  0  0  0  0  0  0
   11.2065   -0.4480   -1.6394 H   0  0  0  0  0  0  0  0  0  0  0  0
  1  2  1  0  0  0  0
  1 15  1  0  0  0  0
  1 16  1  0  0  0  0
  1 17  1  0  0  0  0
  2  3  1  0  0  0  0
  3  4  1  0  0  0  0
  3 18  1  0  0  0  0
  4  5  2  0  0  0  0
  4 19  1  0  0  0  0
  5  6  1  0  0  0  0
  5 20  1  0  0  0  0
  6 13  1  0  0  0  0
  6  7  2  0  0  0  0
  7  8  1  0  0  0  0
  8 11  2  0  0  0  0
  8  9  1  0  0  0  0
  9 10  1  0  0  0  0
 10 21  1  0  0  0  0
 10 22  1  0  0  0  0
 10 23  1  0  0  0  0
 11 12  1  0  0  0  0
 12 13  2  0  0  0  0
 13 14  1  0  0  0  0
 14 24  1  0  0  0  0
 14 25  1  0  0  0  0
 14 26  1  0  0  0  0
M  END
$$$$