5856451 5856450
 OpenBabel01211413553D

 58 58  0  0  0  0  0  0  0  0999 V2000
    8.7453   -0.8546    3.9891 C   0  0  0  0  0  0  0  0  0  0  0  0
    7.9212   -0.0243    3.0235 C   0  0  0  0  0  0  0  0  0  0  0  0
    7.2245   -0.9039    2.1419 O   0  0  0  0  0  0  0  0  0  0  0  0
    6.3857   -0.1835    1.2321 C   0  0  0  0  0  0  0  0  0  0  0  0
    5.9665   -1.0750    0.0330 C   0  0  0  0  0  0  0  0  0  0  0  0
    5.1158   -2.2230    0.4154 N   0  0  0  0  0  0  0  0  0  0  0  0
    5.5873   -3.3844    0.1229 C   0  0  0  0  0  0  0  0  0  0  0  0
    4.8385   -4.6247    0.4166 C   0  0  0  0  0  0  0  0  0  0  0  0
    5.4099   -5.8452    0.0427 C   0  0  0  0  0  0  0  0  0  0  0  0
    4.7317   -7.0382    0.2982 C   0  0  0  0  0  0  0  0  0  0  0  0
    3.4851   -7.0096    0.9250 C   0  0  0  0  0  0  0  0  0  0  0  0
    2.9115   -5.7891    1.2952 C   0  0  0  0  0  0  0  0  0  0  0  0
    3.5844   -4.5885    1.0398 C   0  0  0  0  0  0  0  0  0  0  0  0
    1.5784   -5.7566    1.9380 C   0  0  0  0  0  0  0  0  0  0  0  0
    0.9219   -6.8381    2.1889 N   0  0  0  0  0  0  0  0  0  0  0  0
   -0.4194   -6.6403    2.7823 C   0  0  0  0  0  0  0  0  0  0  0  0
   -0.5834   -7.2840    4.1845 C   0  0  0  0  0  0  0  0  0  0  0  0
   -0.7188   -8.7069    4.1758 O   0  0  0  0  0  0  0  0  0  0  0  0
    0.4341   -9.4150    3.7355 C   0  0  0  0  0  0  0  0  0  0  0  0
    0.1949  -10.8897    4.0087 C   0  0  0  0  0  0  0  0  0  0  0  0
    0.4115   -6.7968    5.0915 O   0  0  0  0  0  0  0  0  0  0  0  0
    0.1537   -7.1983    6.4350 C   0  0  0  0  0  0  0  0  0  0  0  0
    1.1152   -6.4634    7.3475 C   0  0  0  0  0  0  0  0  0  0  0  0
    5.3041    0.5041    1.8684 O   0  0  0  0  0  0  0  0  0  0  0  0
    4.4317   -0.3332    2.6206 C   0  0  0  0  0  0  0  0  0  0  0  0
    3.4667    0.5565    3.3809 C   0  0  0  0  0  0  0  0  0  0  0  0
    9.2908   -0.2117    4.6874 H   0  0  0  0  0  0  0  0  0  0  0  0
    9.4646   -1.4760    3.4481 H   0  0  0  0  0  0  0  0  0  0  0  0
    8.1022   -1.5307    4.5608 H   0  0  0  0  0  0  0  0  0  0  0  0
    8.5830    0.6302    2.4454 H   0  0  0  0  0  0  0  0  0  0  0  0
    7.2122    0.5919    3.5868 H   0  0  0  0  0  0  0  0  0  0  0  0
    7.0000    0.6102    0.7858 H   0  0  0  0  0  0  0  0  0  0  0  0
    6.8759   -1.4055   -0.4828 H   0  0  0  0  0  0  0  0  0  0  0  0
    5.3889   -0.4669   -0.6708 H   0  0  0  0  0  0  0  0  0  0  0  0
    6.5695   -3.5120   -0.3670 H   0  0  0  0  0  0  0  0  0  0  0  0
    6.3794   -5.8813   -0.4473 H   0  0  0  0  0  0  0  0  0  0  0  0
    5.1704   -7.9893    0.0093 H   0  0  0  0  0  0  0  0  0  0  0  0
    2.9628   -7.9418    1.1197 H   0  0  0  0  0  0  0  0  0  0  0  0
    3.1449   -3.6340    1.3174 H   0  0  0  0  0  0  0  0  0  0  0  0
    1.1775   -4.7554    2.1743 H   0  0  0  0  0  0  0  0  0  0  0  0
   -1.1500   -7.0872    2.0984 H   0  0  0  0  0  0  0  0  0  0  0  0
   -0.6590   -5.5727    2.8676 H   0  0  0  0  0  0  0  0  0  0  0  0
   -1.5520   -6.9194    4.5492 H   0  0  0  0  0  0  0  0  0  0  0  0
    1.3245   -9.0821    4.2761 H   0  0  0  0  0  0  0  0  0  0  0  0
    0.5779   -9.2774    2.6620 H   0  0  0  0  0  0  0  0  0  0  0  0
   -0.0182  -11.0593    5.0708 H   0  0  0  0  0  0  0  0  0  0  0  0
    1.0654  -11.4884    3.7229 H   0  0  0  0  0  0  0  0  0  0  0  0
   -0.6766  -11.2477    3.4501 H   0  0  0  0  0  0  0  0  0  0  0  0
    0.3060   -8.2783    6.5353 H   0  0  0  0  0  0  0  0  0  0  0  0
   -0.8771   -6.9543    6.7173 H   0  0  0  0  0  0  0  0  0  0  0  0
    2.1531   -6.6507    7.0514 H   0  0  0  0  0  0  0  0  0  0  0  0
    0.9813   -6.7748    8.3878 H   0  0  0  0  0  0  0  0  0  0  0  0
    0.9546   -5.3814    7.2816 H   0  0  0  0  0  0  0  0  0  0  0  0
    4.9961   -0.9471    3.3281 H   0  0  0  0  0  0  0  0  0  0  0  0
    3.8456   -0.9733    1.9614 H   0  0  0  0  0  0  0  0  0  0  0  0
    4.0067    1.2479    4.0344 H   0  0  0  0  0  0  0  0  0  0  0  0
    2.7813   -0.0440    3.9875 H   0  0  0  0  0  0  0  0  0  0  0  0
    2.8775    1.1649    2.6846 H   0  0  0  0  0  0  0  0  0  0  0  0
  1  2  1  0  0  0  0
  1 27  1  0  0  0  0
  1 28  1  0  0  0  0
  1 29  1  0  0  0  0
  2  3  1  0  0  0  0
  2 30  1  0  0  0  0
  2 31  1  0  0  0  0
  3  4  1  0  0  0  0
  4 24  1  0  0  0  0
  4  5  1  0  0  0  0
  4 32  1  0  0  0  0
  5  6  1  0  0  0  0
  5 33  1  0  0  0  0
  5 34  1  0  0  0  0
  6  7  2  0  0  0  0
  7  8  1  0  0  0  0
  7 35  1  0  0  0  0
  8  9  2  0  0  0  0
  8 13  1  0  0  0  0
  9 10  1  0  0  0  0
  9 36  1  0  0  0  0
 10 11  2  0  0  0  0
 10 37  1  0  0  0  0
 11 12  1  0  0  0  0
 11 38  1  0  0  0  0
 12 13  2  0  0  0  0
 12 14  1  0  0  0  0
 13 39  1  0  0  0  0
 14 15  2  0  0  0  0
 14 40  1  0  0  0  0
 15 16  1  0  0  0  0
 16 17  1  0  0  0  0
 16 41  1  0  0  0  0
 16 42  1  0  0  0  0
 17 21  1  0  0  0  0
 17 18  1  0  0  0  0
 17 43  1  0  0  0  0
 18 19  1  0  0  0  0
 19 20  1  0  0  0  0
 19 44  1  0  0  0  0
 19 45  1  0  0  0  0
 20 46  1  0  0  0  0
 20 47  1  0  0  0  0
 20 48  1  0  0  0  0
 21 22  1  0  0  0  0
 22 23  1  0  0  0  0
 22 49  1  0  0  0  0
 22 50  1  0  0  0  0
 23 51  1  0  0  0  0
 23 52  1  0  0  0  0
 23 53  1  0  0  0  0
 24 25  1  0  0  0  0
 25 26  1  0  0  0  0
 25 54  1  0  0  0  0
 25 55  1  0  0  0  0
 26 56  1  0  0  0  0
 26 57  1  0  0  0  0
 26 58  1  0  0  0  0
M  END
$$$$