4786630 4786629
 OpenBabel01211413543D

 32 33  0  0  1  0  0  0  0  0999 V2000
    1.2236    0.2478    0.7632 O   0  0  0  0  0  0  0  0  0  0  0  0
    2.1813    0.6634   -0.1000 C   0  0  0  0  0  0  0  0  0  0  0  0
    2.4752    1.8484   -0.1998 O   0  0  0  0  0  0  0  0  0  0  0  0
    2.8827   -0.4608   -0.8695 C   0  0  3  0  0  0  0  0  0  0  0  0
    1.8673   -1.9992   -0.8331 S   0  0  0  0  0  0  0  0  0  0  0  0
    2.6712   -2.9602   -2.1686 C   0  0  0  0  0  0  0  0  0  0  0  0
    4.1933   -2.9977   -2.1894 C   0  0  3  0  0  0  0  0  0  0  0  0
    4.8839   -1.8158   -2.7154 N   0  0  0  0  0  0  0  0  0  0  0  0
    4.5168   -0.5900   -2.7770 C   0  0  0  0  0  0  0  0  0  0  0  0
    3.1857   -0.0378   -2.3026 C   0  0  0  0  0  0  0  0  0  0  0  0
    5.4912    0.3752   -3.3874 C   0  0  0  0  0  0  0  0  0  0  0  0
    6.8628    0.1356   -3.2254 C   0  0  0  0  0  0  0  0  0  0  0  0
    7.8017    1.0050   -3.7831 C   0  0  0  0  0  0  0  0  0  0  0  0
    7.3759    2.1158   -4.5092 C   0  0  0  0  0  0  0  0  0  0  0  0
    6.0131    2.3537   -4.6849 C   0  0  0  0  0  0  0  0  0  0  0  0
    5.0700    1.4830   -4.1315 C   0  0  0  0  0  0  0  0  0  0  0  0
    4.7909   -3.4035   -0.8466 C   0  0  0  0  0  0  0  0  0  0  0  0
    5.3790   -2.6921   -0.0467 O   0  0  0  0  0  0  0  0  0  0  0  0
    4.5918   -4.7095   -0.5644 O   0  0  0  0  0  0  0  0  0  0  0  0
    1.1019   -0.7253    0.6973 H   0  0  0  0  0  0  0  0  0  0  0  0
    3.8003   -0.6579   -0.3061 H   0  0  0  0  0  0  0  0  0  0  0  0
    2.2953   -3.9828   -2.0459 H   0  0  0  0  0  0  0  0  0  0  0  0
    2.2824   -2.6116   -3.1314 H   0  0  0  0  0  0  0  0  0  0  0  0
    4.4737   -3.7993   -2.8867 H   0  0  0  0  0  0  0  0  0  0  0  0
    3.2265    1.0545   -2.3497 H   0  0  0  0  0  0  0  0  0  0  0  0
    2.4037   -0.3265   -3.0141 H   0  0  0  0  0  0  0  0  0  0  0  0
    7.2073   -0.7273   -2.6591 H   0  0  0  0  0  0  0  0  0  0  0  0
    8.8638    0.8142   -3.6503 H   0  0  0  0  0  0  0  0  0  0  0  0
    8.1073    2.7943   -4.9421 H   0  0  0  0  0  0  0  0  0  0  0  0
    5.6845    3.2174   -5.2580 H   0  0  0  0  0  0  0  0  0  0  0  0
    4.0173    1.6820   -4.3080 H   0  0  0  0  0  0  0  0  0  0  0  0
    5.0348   -4.8291    0.3029 H   0  0  0  0  0  0  0  0  0  0  0  0
  1  2  1  0  0  0  0
  1 20  1  0  0  0  0
  2  4  1  0  0  0  0
  2  3  2  0  0  0  0
  4 10  1  0  0  0  0
  4  5  1  0  0  0  0
  4 21  1  0  0  0  0
  5  6  1  0  0  0  0
  6  7  1  0  0  0  0
  6 22  1  0  0  0  0
  6 23  1  0  0  0  0
  7  8  1  0  0  0  0
  7 17  1  0  0  0  0
  7 24  1  0  0  0  0
  8  9  2  0  0  0  0
  9 10  1  0  0  0  0
  9 11  1  0  0  0  0
 10 25  1  0  0  0  0
 10 26  1  0  0  0  0
 11 12  2  0  0  0  0
 11 16  1  0  0  0  0
 12 13  1  0  0  0  0
 12 27  1  0  0  0  0
 13 14  2  0  0  0  0
 13 28  1  0  0  0  0
 14 15  1  0  0  0  0
 14 29  1  0  0  0  0
 15 16  2  0  0  0  0
 15 30  1  0  0  0  0
 16 31  1  0  0  0  0
 17 19  1  0  0  0  0
 17 18  2  0  0  0  0
 19 32  1  0  0  0  0
M  END
$$$$