559717 559716
 OpenBabel01211413263D

 35 38  0  0  0  0  0  0  0  0999 V2000
    1.5355   -0.0635   -0.7186 O   0  0  0  0  0  0  0  0  0  0  0  0
    2.5288    0.0117    0.0027 C   0  0  0  0  0  0  0  0  0  0  0  0
    3.0700   -1.1285    0.7350 C   0  0  0  0  0  0  0  0  0  0  0  0
    4.1635   -0.9515    2.0328 S   0  0  0  0  0  0  0  0  0  0  0  0
    4.2640   -2.6306    2.2793 C   0  0  0  0  0  0  0  0  0  0  0  0
    3.4557   -3.3695    1.4198 C   0  0  0  0  0  0  0  0  0  0  0  0
    2.7670   -2.4667    0.5296 C   0  0  0  0  0  0  0  0  0  0  0  0
    1.9141   -2.8538   -0.4424 N   0  0  0  0  0  0  0  0  0  0  0  0
    3.4858   -4.7799    1.5925 C   0  0  0  0  0  0  0  0  0  0  0  0
    4.3436   -5.2853    2.5983 C   0  0  0  0  0  0  0  0  0  0  0  0
    5.1077   -4.4349    3.3844 C   0  0  0  0  0  0  0  0  0  0  0  0
    5.0777   -3.0982    3.2447 N   0  0  0  0  0  0  0  0  0  0  0  0
    6.0259   -4.8990    4.4458 C   0  0  0  0  0  0  0  0  0  0  0  0
    6.8254   -4.1289    5.2790 C   0  0  0  0  0  0  0  0  0  0  0  0
    7.5958   -4.9012    6.1959 C   0  0  0  0  0  0  0  0  0  0  0  0
    7.3696   -6.2487    6.0452 C   0  0  0  0  0  0  0  0  0  0  0  0
    6.2385   -6.5694    4.8084 S   0  0  0  0  0  0  0  0  0  0  0  0
    2.7069   -5.8065    0.8073 C   0  0  0  0  0  0  0  0  0  0  0  0
    3.5255   -6.6279    0.0917 F   0  0  0  0  0  0  0  0  0  0  0  0
    1.9912   -6.6302    1.6262 F   0  0  0  0  0  0  0  0  0  0  0  0
    1.8040   -5.3192   -0.0838 F   0  0  0  0  0  0  0  0  0  0  0  0
    3.2320    1.3318    0.1308 C   0  0  0  0  0  0  0  0  0  0  0  0
    2.8768    2.4756   -0.7973 C   0  0  0  0  0  0  0  0  0  0  0  0
    2.4756    2.5354    0.6471 C   0  0  0  0  0  0  0  0  0  0  0  0
    1.5477   -3.7994   -0.5430 H   0  0  0  0  0  0  0  0  0  0  0  0
    1.3507   -2.1605   -0.9462 H   0  0  0  0  0  0  0  0  0  0  0  0
    4.3901   -6.3632    2.7415 H   0  0  0  0  0  0  0  0  0  0  0  0
    6.8529   -3.0461    5.2275 H   0  0  0  0  0  0  0  0  0  0  0  0
    8.2795   -4.4870    6.9268 H   0  0  0  0  0  0  0  0  0  0  0  0
    7.8151   -7.0618    6.6031 H   0  0  0  0  0  0  0  0  0  0  0  0
    4.2898    1.2762    0.3705 H   0  0  0  0  0  0  0  0  0  0  0  0
    2.0968    2.3240   -1.5362 H   0  0  0  0  0  0  0  0  0  0  0  0
    3.6789    3.1229   -1.1330 H   0  0  0  0  0  0  0  0  0  0  0  0
    3.0010    3.2298    1.2920 H   0  0  0  0  0  0  0  0  0  0  0  0
    1.4207    2.4272    0.8768 H   0  0  0  0  0  0  0  0  0  0  0  0
  1  2  2  0  0  0  0
  2 22  1  0  0  0  0
  2  3  1  0  0  0  0
  3  7  2  0  0  0  0
  3  4  1  0  0  0  0
  4  5  1  0  0  0  0
  5  6  2  0  0  0  0
  5 12  1  0  0  0  0
  6  9  1  0  0  0  0
  6  7  1  0  0  0  0
  7  8  1  0  0  0  0
  8 25  1  0  0  0  0
  8 26  1  0  0  0  0
  9 10  2  0  0  0  0
  9 18  1  0  0  0  0
 10 11  1  0  0  0  0
 10 27  1  0  0  0  0
 11 12  2  0  0  0  0
 11 13  1  0  0  0  0
 13 14  2  0  0  0  0
 13 17  1  0  0  0  0
 14 15  1  0  0  0  0
 14 28  1  0  0  0  0
 15 16  2  0  0  0  0
 15 29  1  0  0  0  0
 16 17  1  0  0  0  0
 16 30  1  0  0  0  0
 18 21  1  0  0  0  0
 18 20  1  0  0  0  0
 18 19  1  0  0  0  0
 22 24  1  0  0  0  0
 22 23  1  0  0  0  0
 22 31  1  0  0  0  0
 23 24  1  0  0  0  0
 23 32  1  0  0  0  0
 23 33  1  0  0  0  0
 24 34  1  0  0  0  0
 24 35  1  0  0  0  0
M  END
$$$$