605290 605289
 OpenBabel01211413283D

 36 38  0  0  1  0  0  0  0  0999 V2000
    0.8580    0.8574    1.2474 O   0  0  0  0  0  0  0  0  0  0  0  0
    1.6750    0.1335    0.6931 C   0  0  0  0  0  0  0  0  0  0  0  0
    2.3941   -0.8984    1.4914 C   0  0  3  0  0  0  0  0  0  0  0  0
    3.0674   -2.1005    0.8787 C   0  0  0  0  0  0  0  0  0  0  0  0
    3.9073   -1.0283    1.5354 C   0  0  3  0  0  0  0  0  0  0  0  0
    4.8146   -0.1426    0.7145 C   0  0  0  0  0  0  0  0  0  0  0  0
    5.6615   -0.6667   -0.2763 C   0  0  0  0  0  0  0  0  0  0  0  0
    6.4971    0.1597   -1.0332 C   0  0  0  0  0  0  0  0  0  0  0  0
    6.5105    1.5324   -0.8054 C   0  0  0  0  0  0  0  0  0  0  0  0
    5.6934    2.0760    0.1810 C   0  0  0  0  0  0  0  0  0  0  0  0
    4.8602    1.2447    0.9337 C   0  0  0  0  0  0  0  0  0  0  0  0
    1.9757    0.2073   -0.6421 N   0  0  0  0  0  0  0  0  0  0  0  0
    1.4304    1.2422   -1.4834 C   0  0  0  0  0  0  0  0  0  0  0  0
    1.6332    0.8773   -2.9295 C   0  0  0  0  0  0  0  0  0  0  0  0
    0.6880    0.0859   -3.5960 C   0  0  0  0  0  0  0  0  0  0  0  0
    0.8996   -0.3098   -4.9158 C   0  0  0  0  0  0  0  0  0  0  0  0
    2.0632    0.0754   -5.5808 C   0  0  0  0  0  0  0  0  0  0  0  0
    3.0152    0.8542   -4.9251 C   0  0  0  0  0  0  0  0  0  0  0  0
    2.8051    1.2508   -3.6029 C   0  0  0  0  0  0  0  0  0  0  0  0
    1.8861   -1.0885    2.4356 H   0  0  0  0  0  0  0  0  0  0  0  0
    3.0802   -2.2146   -0.1979 H   0  0  0  0  0  0  0  0  0  0  0  0
    2.9656   -3.0486    1.3975 H   0  0  0  0  0  0  0  0  0  0  0  0
    4.3183   -1.2921    2.5100 H   0  0  0  0  0  0  0  0  0  0  0  0
    5.6753   -1.7386   -0.4627 H   0  0  0  0  0  0  0  0  0  0  0  0
    7.1415   -0.2718   -1.7949 H   0  0  0  0  0  0  0  0  0  0  0  0
    7.1636    2.1764   -1.3883 H   0  0  0  0  0  0  0  0  0  0  0  0
    5.7050    3.1462    0.3711 H   0  0  0  0  0  0  0  0  0  0  0  0
    4.2290    1.6881    1.7026 H   0  0  0  0  0  0  0  0  0  0  0  0
    2.8111   -0.2546   -0.9709 H   0  0  0  0  0  0  0  0  0  0  0  0
    1.9361    2.1834   -1.2426 H   0  0  0  0  0  0  0  0  0  0  0  0
    0.3670    1.3813   -1.2593 H   0  0  0  0  0  0  0  0  0  0  0  0
   -0.2165   -0.2355   -3.0804 H   0  0  0  0  0  0  0  0  0  0  0  0
    0.1617   -0.9247   -5.4239 H   0  0  0  0  0  0  0  0  0  0  0  0
    2.2298   -0.2368   -6.6082 H   0  0  0  0  0  0  0  0  0  0  0  0
    3.9257    1.1479   -5.4415 H   0  0  0  0  0  0  0  0  0  0  0  0
    3.5639    1.8440   -3.0969 H   0  0  0  0  0  0  0  0  0  0  0  0
  1  2  2  0  0  0  0
  2 12  1  0  0  0  0
  2  3  1  0  0  0  0
  3  5  1  0  0  0  0
  3  4  1  0  0  0  0
  3 20  1  0  0  0  0
  4  5  1  0  0  0  0
  4 21  1  0  0  0  0
  4 22  1  0  0  0  0
  5  6  1  0  0  0  0
  5 23  1  0  0  0  0
  6  7  2  0  0  0  0
  6 11  1  0  0  0  0
  7  8  1  0  0  0  0
  7 24  1  0  0  0  0
  8  9  2  0  0  0  0
  8 25  1  0  0  0  0
  9 10  1  0  0  0  0
  9 26  1  0  0  0  0
 10 11  2  0  0  0  0
 10 27  1  0  0  0  0
 11 28  1  0  0  0  0
 12 13  1  0  0  0  0
 12 29  1  0  0  0  0
 13 14  1  0  0  0  0
 13 30  1  0  0  0  0
 13 31  1  0  0  0  0
 14 15  2  0  0  0  0
 14 19  1  0  0  0  0
 15 16  1  0  0  0  0
 15 32  1  0  0  0  0
 16 17  2  0  0  0  0
 16 33  1  0  0  0  0
 17 18  1  0  0  0  0
 17 34  1  0  0  0  0
 18 19  2  0  0  0  0
 18 35  1  0  0  0  0
 19 36  1  0  0  0  0
M  END
$$$$