32239250 32239249
 OpenBabel01211414073D

 21 20  0  0  0  0  0  0  0  0999 V2000
    5.2168    1.5644    0.7058 O   0  0  0  0  0  0  0  0  0  0  0  0
    4.4750    0.5868    0.7452 C   0  0  0  0  0  0  0  0  0  0  0  0
    2.9873    0.6683    1.0016 C   0  0  0  0  0  0  0  0  0  0  0  0
    2.6166    0.2928    2.4677 C   0  0  0  0  0  0  0  0  0  0  0  0
    3.0581   -1.1547    2.7742 C   0  0  0  0  0  0  0  0  0  0  0  0
    3.2794    1.2326    3.4939 C   0  0  0  0  0  0  0  0  0  0  0  0
    1.0860    0.3590    2.6615 C   0  0  0  0  0  0  0  0  0  0  0  0
    2.4581    2.0271    0.5965 C   0  0  0  0  0  0  0  0  0  0  0  0
    1.4505    2.1675   -0.0931 O   0  0  0  0  0  0  0  0  0  0  0  0
    4.8833   -0.4300    0.6186 H   0  0  0  0  0  0  0  0  0  0  0  0
    2.5279   -0.0555    0.3137 H   0  0  0  0  0  0  0  0  0  0  0  0
    2.6231   -1.8594    2.0573 H   0  0  0  0  0  0  0  0  0  0  0  0
    2.7377   -1.4614    3.7764 H   0  0  0  0  0  0  0  0  0  0  0  0
    4.1466   -1.2641    2.7381 H   0  0  0  0  0  0  0  0  0  0  0  0
    2.9753    2.2734    3.3446 H   0  0  0  0  0  0  0  0  0  0  0  0
    4.3720    1.1883    3.4351 H   0  0  0  0  0  0  0  0  0  0  0  0
    2.9983    0.9557    4.5165 H   0  0  0  0  0  0  0  0  0  0  0  0
    0.7060    1.3801    2.5504 H   0  0  0  0  0  0  0  0  0  0  0  0
    0.7992    0.0168    3.6626 H   0  0  0  0  0  0  0  0  0  0  0  0
    0.5688   -0.2757    1.9336 H   0  0  0  0  0  0  0  0  0  0  0  0
    2.9866    2.9049    1.0059 H   0  0  0  0  0  0  0  0  0  0  0  0
  1  2  2  0  0  0  0
  2  3  1  0  0  0  0
  2 10  1  0  0  0  0
  3  8  1  0  0  0  0
  3  4  1  0  0  0  0
  3 11  1  0  0  0  0
  4  7  1  0  0  0  0
  4  6  1  0  0  0  0
  4  5  1  0  0  0  0
  5 12  1  0  0  0  0
  5 13  1  0  0  0  0
  5 14  1  0  0  0  0
  6 15  1  0  0  0  0
  6 16  1  0  0  0  0
  6 17  1  0  0  0  0
  7 18  1  0  0  0  0
  7 19  1  0  0  0  0
  7 20  1  0  0  0  0
  8  9  2  0  0  0  0
  8 21  1  0  0  0  0
M  END
$$$$