1173712 1173711
 OpenBabel01211413403D

 46 47  0  0  1  0  0  0  0  0999 V2000
    0.9942    1.4056   -5.4764 C   0  0  0  0  0  0  0  0  0  0  0  0
    1.4707    0.8894   -4.1173 C   0  0  0  0  0  0  0  0  0  0  0  0
    1.2594   -0.6303   -3.9614 C   0  0  0  0  0  0  0  0  0  0  0  0
   -0.1436   -0.9922   -3.7387 N   0  0  0  0  0  0  0  0  0  0  0  0
   -0.7731   -1.0528   -2.5051 C   0  0  0  0  0  0  0  0  0  0  0  0
   -0.1278   -0.7540   -1.0016 S   0  0  0  0  0  0  0  0  0  0  0  0
   -2.4654   -1.5092   -2.7303 S   0  0  0  0  0  0  0  0  0  0  0  0
   -2.4278   -1.1184   -4.5207 C   0  0  0  0  0  0  0  0  0  0  0  0
   -0.9517   -1.4355   -4.8758 C   0  0  3  0  0  0  0  0  0  0  0  0
   -0.6850   -2.8476   -5.2093 N   0  0  0  0  0  0  0  0  0  0  0  0
   -0.8542   -3.3776   -6.4724 C   0  0  0  0  0  0  0  0  0  0  0  0
   -1.2431   -2.6851   -7.4099 O   0  0  0  0  0  0  0  0  0  0  0  0
   -0.5381   -4.7164   -6.5259 N   0  0  0  0  0  0  0  0  0  0  0  0
   -0.6866   -5.6022   -7.6046 C   0  0  0  0  0  0  0  0  0  0  0  0
   -1.4273   -5.3017   -8.7511 C   0  0  0  0  0  0  0  0  0  0  0  0
   -1.5517   -6.2399   -9.7816 C   0  0  0  0  0  0  0  0  0  0  0  0
   -0.9291   -7.4798   -9.6704 C   0  0  0  0  0  0  0  0  0  0  0  0
   -0.1906   -7.7936   -8.5326 C   0  0  0  0  0  0  0  0  0  0  0  0
   -0.0776   -6.8590   -7.4983 C   0  0  0  0  0  0  0  0  0  0  0  0
   -1.0760   -8.6296  -10.9409 Cl  0  0  0  0  0  0  0  0  0  0  0  0
   -0.3525   -3.7246   -4.1517 O   0  0  0  0  0  0  0  0  0  0  0  0
   -2.7279    0.3828   -4.6856 C   0  0  0  0  0  0  0  0  0  0  0  0
   -3.4915   -1.9250   -5.2621 C   0  0  0  0  0  0  0  0  0  0  0  0
    2.9512    1.2323   -3.9386 C   0  0  0  0  0  0  0  0  0  0  0  0
    1.2406    2.4657   -5.6000 H   0  0  0  0  0  0  0  0  0  0  0  0
   -0.0898    1.3183   -5.5776 H   0  0  0  0  0  0  0  0  0  0  0  0
    1.4605    0.8528   -6.2988 H   0  0  0  0  0  0  0  0  0  0  0  0
    0.9079    1.4196   -3.3392 H   0  0  0  0  0  0  0  0  0  0  0  0
    1.8416   -0.9942   -3.1076 H   0  0  0  0  0  0  0  0  0  0  0  0
    1.6302   -1.1716   -4.8399 H   0  0  0  0  0  0  0  0  0  0  0  0
   -0.6746   -0.8527   -5.7612 H   0  0  0  0  0  0  0  0  0  0  0  0
   -0.0593   -5.0366   -5.6916 H   0  0  0  0  0  0  0  0  0  0  0  0
   -1.9367   -4.3495   -8.8653 H   0  0  0  0  0  0  0  0  0  0  0  0
   -2.1376   -5.9929  -10.6630 H   0  0  0  0  0  0  0  0  0  0  0  0
    0.2986   -8.7598   -8.4434 H   0  0  0  0  0  0  0  0  0  0  0  0
    0.5041   -7.1218   -6.6182 H   0  0  0  0  0  0  0  0  0  0  0  0
   -1.1237   -3.6381   -3.5570 H   0  0  0  0  0  0  0  0  0  0  0  0
   -2.0375    1.0183   -4.1191 H   0  0  0  0  0  0  0  0  0  0  0  0
   -3.7448    0.6295   -4.3585 H   0  0  0  0  0  0  0  0  0  0  0  0
   -2.6437    0.6757   -5.7386 H   0  0  0  0  0  0  0  0  0  0  0  0
   -3.3788   -3.0047   -5.1205 H   0  0  0  0  0  0  0  0  0  0  0  0
   -3.4508   -1.7193   -6.3375 H   0  0  0  0  0  0  0  0  0  0  0  0
   -4.5007   -1.6565   -4.9271 H   0  0  0  0  0  0  0  0  0  0  0  0
    3.5703    0.7193   -4.6823 H   0  0  0  0  0  0  0  0  0  0  0  0
    3.3007    0.9405   -2.9429 H   0  0  0  0  0  0  0  0  0  0  0  0
    3.1166    2.3100   -4.0447 H   0  0  0  0  0  0  0  0  0  0  0  0
  1  2  1  0  0  0  0
  1 25  1  0  0  0  0
  1 26  1  0  0  0  0
  1 27  1  0  0  0  0
  2 24  1  0  0  0  0
  2  3  1  0  0  0  0
  2 28  1  0  0  0  0
  3  4  1  0  0  0  0
  3 29  1  0  0  0  0
  3 30  1  0  0  0  0
  4  9  1  0  0  0  0
  4  5  1  0  0  0  0
  5  7  1  0  0  0  0
  5  6  2  0  0  0  0
  7  8  1  0  0  0  0
  8  9  1  0  0  0  0
  8 23  1  0  0  0  0
  8 22  1  0  0  0  0
  9 10  1  0  0  0  0
  9 31  1  0  0  0  0
 10 21  1  0  0  0  0
 10 11  1  0  0  0  0
 11 13  1  0  0  0  0
 11 12  2  0  0  0  0
 13 14  1  0  0  0  0
 13 32  1  0  0  0  0
 14 15  2  0  0  0  0
 14 19  1  0  0  0  0
 15 16  1  0  0  0  0
 15 33  1  0  0  0  0
 16 17  2  0  0  0  0
 16 34  1  0  0  0  0
 17 18  1  0  0  0  0
 17 20  1  0  0  0  0
 18 19  2  0  0  0  0
 18 35  1  0  0  0  0
 19 36  1  0  0  0  0
 21 37  1  0  0  0  0
 22 38  1  0  0  0  0
 22 39  1  0  0  0  0
 22 40  1  0  0  0  0
 23 41  1  0  0  0  0
 23 42  1  0  0  0  0
 23 43  1  0  0  0  0
 24 44  1  0  0  0  0
 24 45  1  0  0  0  0
 24 46  1  0  0  0  0
M  END
$$$$