1964678 1964677
 OpenBabel01211413453D

 24 25  0  0  0  0  0  0  0  0999 V2000
    1.3051   -0.4380   -0.3324 C   0  0  0  0  0  0  0  0  0  0  0  0
    2.5602    0.3003    0.7024 P   0  0  3  0  0  0  0  0  0  0  0  0
    2.1100    0.3622    2.1370 O   0  0  0  0  0  0  0  0  0  0  0  0
    4.0347   -0.6399    0.3987 C   0  0  0  0  0  0  0  0  0  0  0  0
    5.0610   -0.1439    1.2537 O   0  0  0  0  0  0  0  0  0  0  0  0
    5.7351    0.9323    0.7453 C   0  0  0  0  0  0  0  0  0  0  0  0
    5.1791    2.1960    0.5215 C   0  0  0  0  0  0  0  0  0  0  0  0
    3.8773    2.5371    0.7737 O   0  0  0  0  0  0  0  0  0  0  0  0
    2.9348    1.8630   -0.0539 C   0  0  0  0  0  0  0  0  0  0  0  0
    6.0111    3.2666    0.1715 C   0  0  0  0  0  0  0  0  0  0  0  0
    7.3871    3.0780    0.0288 C   0  0  0  0  0  0  0  0  0  0  0  0
    7.9411    1.8209    0.2493 C   0  0  0  0  0  0  0  0  0  0  0  0
    7.1181    0.7534    0.6143 C   0  0  0  0  0  0  0  0  0  0  0  0
    1.6362   -0.5075   -1.3700 H   0  0  0  0  0  0  0  0  0  0  0  0
    0.3914    0.1609   -0.2996 H   0  0  0  0  0  0  0  0  0  0  0  0
    1.0674   -1.4418    0.0250 H   0  0  0  0  0  0  0  0  0  0  0  0
    4.3431   -0.6180   -0.6552 H   0  0  0  0  0  0  0  0  0  0  0  0
    3.8643   -1.6871    0.6629 H   0  0  0  0  0  0  0  0  0  0  0  0
    2.0323    2.4780   -0.0929 H   0  0  0  0  0  0  0  0  0  0  0  0
    3.3006    1.7591   -1.0818 H   0  0  0  0  0  0  0  0  0  0  0  0
    5.5888    4.2593    0.0454 H   0  0  0  0  0  0  0  0  0  0  0  0
    8.0267    3.9198   -0.2207 H   0  0  0  0  0  0  0  0  0  0  0  0
    9.0149    1.6765    0.1735 H   0  0  0  0  0  0  0  0  0  0  0  0
    7.5602   -0.2144    0.8336 H   0  0  0  0  0  0  0  0  0  0  0  0
  1  2  1  0  0  0  0
  1 14  1  0  0  0  0
  1 15  1  0  0  0  0
  1 16  1  0  0  0  0
  2  9  1  0  0  0  0
  2  4  1  0  0  0  0
  2  3  2  0  0  0  0
  4  5  1  0  0  0  0
  4 17  1  0  0  0  0
  4 18  1  0  0  0  0
  5  6  1  0  0  0  0
  6  7  2  0  0  0  0
  6 13  1  0  0  0  0
  7  8  1  0  0  0  0
  7 10  1  0  0  0  0
  8  9  1  0  0  0  0
  9 19  1  0  0  0  0
  9 20  1  0  0  0  0
 10 11  2  0  0  0  0
 10 21  1  0  0  0  0
 11 12  1  0  0  0  0
 11 22  1  0  0  0  0
 12 13  2  0  0  0  0
 12 23  1  0  0  0  0
 13 24  1  0  0  0  0
M  END
$$$$