573726 573725
 OpenBabel01211413263D

 53 58  0  0  1  0  0  0  0  0999 V2000
    0.8256    0.4797   -2.9002 C   0  0  0  0  0  0  0  0  0  0  0  0
    2.1593    0.2253   -2.4577 O   0  0  0  0  0  0  0  0  0  0  0  0
    2.7489    1.2740   -1.8306 C   0  0  0  0  0  0  0  0  0  0  0  0
    2.2299    2.3577   -1.6088 O   0  0  0  0  0  0  0  0  0  0  0  0
    4.1513    0.9426   -1.4619 C   0  0  0  0  0  0  0  0  0  0  0  0
    4.7074   -0.3135   -1.7169 C   0  0  0  0  0  0  0  0  0  0  0  0
    6.0449   -0.5666   -1.4032 C   0  0  0  0  0  0  0  0  0  0  0  0
    6.8566    0.4215   -0.8182 C   0  0  0  0  0  0  0  0  0  0  0  0
    6.2839    1.6768   -0.5563 C   0  0  0  0  0  0  0  0  0  0  0  0
    4.9441    1.9339   -0.8710 C   0  0  0  0  0  0  0  0  0  0  0  0
    8.3483    0.2045   -0.5610 C   0  0  3  0  0  0  0  0  0  0  0  0
    9.0732    0.6132   -1.7432 O   0  0  0  0  0  0  0  0  0  0  0  0
    9.1991   -0.3615   -2.7015 C   0  0  0  0  0  0  0  0  0  0  0  0
    9.3096    0.0762   -4.0207 C   0  0  0  0  0  0  0  0  0  0  0  0
    9.3936   -0.8555   -5.0520 C   0  0  0  0  0  0  0  0  0  0  0  0
    9.3738   -2.2185   -4.7593 C   0  0  0  0  0  0  0  0  0  0  0  0
    9.2935   -2.6544   -3.4324 C   0  0  0  0  0  0  0  0  0  0  0  0
    9.2231   -1.7283   -2.3833 C   0  0  0  0  0  0  0  0  0  0  0  0
    9.1753   -2.1091   -0.9617 C   0  0  0  0  0  0  0  0  0  0  0  0
    8.7420   -1.1745   -0.0899 C   0  0  0  0  0  0  0  0  0  0  0  0
    8.7580   -1.4491    1.4139 C   0  0  3  0  0  0  0  0  0  0  0  0
    7.4133   -1.2538    2.0859 C   0  0  0  0  0  0  0  0  0  0  0  0
    6.2930   -2.0410    1.7721 C   0  0  0  0  0  0  0  0  0  0  0  0
    5.0691   -1.8160    2.4083 C   0  0  0  0  0  0  0  0  0  0  0  0
    4.9506   -0.8148    3.3722 C   0  0  0  0  0  0  0  0  0  0  0  0
    6.0557   -0.0333    3.6989 C   0  0  0  0  0  0  0  0  0  0  0  0
    7.2689   -0.2548    3.0548 C   0  0  0  0  0  0  0  0  0  0  0  0
    8.3122    0.5275    3.3668 F   0  0  0  0  0  0  0  0  0  0  0  0
    9.2886   -2.7884    1.7121 N   0  0  0  0  0  0  0  0  0  0  0  0
    9.6938   -3.6839    0.7573 C   0  0  0  0  0  0  0  0  0  0  0  0
    9.5898   -3.3565   -0.5447 N   0  0  0  0  0  0  0  0  0  0  0  0
   10.1776   -4.7524    1.3376 N   0  0  0  0  0  0  0  0  0  0  0  0
   10.0746   -4.4457    2.6697 C   0  0  0  0  0  0  0  0  0  0  0  0
    9.5576   -3.2449    2.9540 N   0  0  0  0  0  0  0  0  0  0  0  0
    0.4225   -0.4514   -3.3084 H   0  0  0  0  0  0  0  0  0  0  0  0
    0.8286    1.2334   -3.6937 H   0  0  0  0  0  0  0  0  0  0  0  0
    0.1907    0.7945   -2.0662 H   0  0  0  0  0  0  0  0  0  0  0  0
    4.1215   -1.1035   -2.1799 H   0  0  0  0  0  0  0  0  0  0  0  0
    6.4431   -1.5483   -1.6470 H   0  0  0  0  0  0  0  0  0  0  0  0
    6.8844    2.4770   -0.1268 H   0  0  0  0  0  0  0  0  0  0  0  0
    4.5284    2.9205   -0.6727 H   0  0  0  0  0  0  0  0  0  0  0  0
    8.6665    0.9137    0.2145 H   0  0  0  0  0  0  0  0  0  0  0  0
    9.3080    1.1398   -4.2425 H   0  0  0  0  0  0  0  0  0  0  0  0
    9.4634   -0.5189   -6.0832 H   0  0  0  0  0  0  0  0  0  0  0  0
    9.4226   -2.9452   -5.5670 H   0  0  0  0  0  0  0  0  0  0  0  0
    9.2697   -3.7236   -3.2425 H   0  0  0  0  0  0  0  0  0  0  0  0
    9.5036   -0.7734    1.8554 H   0  0  0  0  0  0  0  0  0  0  0  0
    6.3620   -2.8323    1.0280 H   0  0  0  0  0  0  0  0  0  0  0  0
    4.2054   -2.4259    2.1532 H   0  0  0  0  0  0  0  0  0  0  0  0
    3.9986   -0.6458    3.8691 H   0  0  0  0  0  0  0  0  0  0  0  0
    5.9808    0.7468    4.4499 H   0  0  0  0  0  0  0  0  0  0  0  0
   10.0425   -3.9578   -1.2238 H   0  0  0  0  0  0  0  0  0  0  0  0
   10.3965   -5.1175    3.4553 H   0  0  0  0  0  0  0  0  0  0  0  0
  1  2  1  0  0  0  0
  1 35  1  0  0  0  0
  1 36  1  0  0  0  0
  1 37  1  0  0  0  0
  2  3  1  0  0  0  0
  3  5  1  0  0  0  0
  3  4  2  0  0  0  0
  5  6  2  0  0  0  0
  5 10  1  0  0  0  0
  6  7  1  0  0  0  0
  6 38  1  0  0  0  0
  7  8  2  0  0  0  0
  7 39  1  0  0  0  0
  8  9  1  0  0  0  0
  8 11  1  0  0  0  0
  9 10  2  0  0  0  0
  9 40  1  0  0  0  0
 10 41  1  0  0  0  0
 11 12  1  0  0  0  0
 11 20  1  0  0  0  0
 11 42  1  0  0  0  0
 12 13  1  0  0  0  0
 13 14  2  0  0  0  0
 13 18  1  0  0  0  0
 14 15  1  0  0  0  0
 14 43  1  0  0  0  0
 15 16  2  0  0  0  0
 15 44  1  0  0  0  0
 16 17  1  0  0  0  0
 16 45  1  0  0  0  0
 17 18  2  0  0  0  0
 17 46  1  0  0  0  0
 18 19  1  0  0  0  0
 19 20  2  0  0  0  0
 19 31  1  0  0  0  0
 20 21  1  0  0  0  0
 21 29  1  0  0  0  0
 21 22  1  0  0  0  0
 21 47  1  0  0  0  0
 22 23  2  0  0  0  0
 22 27  1  0  0  0  0
 23 24  1  0  0  0  0
 23 48  1  0  0  0  0
 24 25  2  0  0  0  0
 24 49  1  0  0  0  0
 25 26  1  0  0  0  0
 25 50  1  0  0  0  0
 26 27  2  0  0  0  0
 26 51  1  0  0  0  0
 27 28  1  0  0  0  0
 29 30  1  0  0  0  0
 29 34  1  0  0  0  0
 30 31  1  0  0  0  0
 30 32  2  0  0  0  0
 31 52  1  0  0  0  0
 32 33  1  0  0  0  0
 33 34  2  0  0  0  0
 33 53  1  0  0  0  0
M  END
$$$$