484104 484103
 OpenBabel01211413183D

 28 28  0  0  0  0  0  0  0  0999 V2000
    1.6562    0.7084    0.2859 O   0  0  0  0  0  0  0  0  0  0  0  0
    1.8620   -0.1617   -0.5468 C   0  0  0  0  0  0  0  0  0  0  0  0
    0.9549   -0.4211   -1.6996 C   0  0  0  0  0  0  0  0  0  0  0  0
   -0.1782    0.3921   -1.8431 C   0  0  0  0  0  0  0  0  0  0  0  0
   -1.0694    0.1814   -2.8971 C   0  0  0  0  0  0  0  0  0  0  0  0
   -0.8354   -0.8426   -3.8138 C   0  0  0  0  0  0  0  0  0  0  0  0
    0.2892   -1.6558   -3.6808 C   0  0  0  0  0  0  0  0  0  0  0  0
    1.1840   -1.4479   -2.6282 C   0  0  0  0  0  0  0  0  0  0  0  0
    2.8955   -1.0500   -0.5694 O   0  0  0  0  0  0  0  0  0  0  0  0
    3.7395   -0.7827    0.5956 O   0  0  0  0  0  0  0  0  0  0  0  0
    3.7589   -1.9693    1.4073 C   0  0  0  0  0  0  0  0  0  0  0  0
    2.3637   -2.2766    1.9609 C   0  0  0  0  0  0  0  0  0  0  0  0
    4.3123   -3.1558    0.6096 C   0  0  0  0  0  0  0  0  0  0  0  0
    4.7062   -1.6608    2.5724 C   0  0  0  0  0  0  0  0  0  0  0  0
   -0.3723    1.1934   -1.1317 H   0  0  0  0  0  0  0  0  0  0  0  0
   -1.9462    0.8156   -3.0013 H   0  0  0  0  0  0  0  0  0  0  0  0
   -1.5309   -1.0069   -4.6335 H   0  0  0  0  0  0  0  0  0  0  0  0
    0.4695   -2.4537   -4.3974 H   0  0  0  0  0  0  0  0  0  0  0  0
    2.0517   -2.0981   -2.5493 H   0  0  0  0  0  0  0  0  0  0  0  0
    1.9442   -1.4006    2.4683 H   0  0  0  0  0  0  0  0  0  0  0  0
    2.3891   -3.1106    2.6701 H   0  0  0  0  0  0  0  0  0  0  0  0
    1.6641   -2.5415    1.1607 H   0  0  0  0  0  0  0  0  0  0  0  0
    5.2803   -2.9053    0.1610 H   0  0  0  0  0  0  0  0  0  0  0  0
    3.6466   -3.4291   -0.2166 H   0  0  0  0  0  0  0  0  0  0  0  0
    4.4390   -4.0402    1.2427 H   0  0  0  0  0  0  0  0  0  0  0  0
    5.7068   -1.4059    2.2045 H   0  0  0  0  0  0  0  0  0  0  0  0
    4.7960   -2.5099    3.2582 H   0  0  0  0  0  0  0  0  0  0  0  0
    4.3549   -0.7919    3.1409 H   0  0  0  0  0  0  0  0  0  0  0  0
  1  2  2  0  0  0  0
  2  9  1  0  0  0  0
  2  3  1  0  0  0  0
  3  4  2  0  0  0  0
  3  8  1  0  0  0  0
  4  5  1  0  0  0  0
  4 15  1  0  0  0  0
  5  6  2  0  0  0  0
  5 16  1  0  0  0  0
  6  7  1  0  0  0  0
  6 17  1  0  0  0  0
  7  8  2  0  0  0  0
  7 18  1  0  0  0  0
  8 19  1  0  0  0  0
  9 10  1  0  0  0  0
 10 11  1  0  0  0  0
 11 14  1  0  0  0  0
 11 13  1  0  0  0  0
 11 12  1  0  0  0  0
 12 20  1  0  0  0  0
 12 21  1  0  0  0  0
 12 22  1  0  0  0  0
 13 23  1  0  0  0  0
 13 24  1  0  0  0  0
 13 25  1  0  0  0  0
 14 26  1  0  0  0  0
 14 27  1  0  0  0  0
 14 28  1  0  0  0  0
M  END
$$$$