1237873 1237872
 OpenBabel01211413413D

 30 31  0  0  0  0  0  0  0  0999 V2000
    8.5376   -1.2951    6.9892 C   0  0  0  0  0  0  0  0  0  0  0  0
    7.7212   -0.7016    5.8559 C   0  0  0  0  0  0  0  0  0  0  0  0
    7.1295    0.5071    6.3266 O   0  0  0  0  0  0  0  0  0  0  0  0
    6.3339    1.2431    5.4692 C   0  0  0  0  0  0  0  0  0  0  0  0
    6.0606    0.8841    4.1902 C   0  0  0  0  0  0  0  0  0  0  0  0
    5.2270    1.7175    3.3414 C   0  0  0  0  0  0  0  0  0  0  0  0
    5.6616    2.9764    3.1503 C   0  0  0  0  0  0  0  0  0  0  0  0
    4.9432    3.9110    4.0575 C   0  0  0  0  0  0  0  0  0  0  0  0
    4.3005    4.8610    3.6297 O   0  0  0  0  0  0  0  0  0  0  0  0
    5.1789    3.6066    5.4723 C   0  0  0  0  0  0  0  0  0  0  0  0
    5.8059    2.4505    6.0966 C   0  0  0  0  0  0  0  0  0  0  0  0
    5.7766    2.7065    7.4597 C   0  0  0  0  0  0  0  0  0  0  0  0
    6.2269    1.9716    8.6635 C   0  0  0  0  0  0  0  0  0  0  0  0
    5.1776    3.9037    7.7061 O   0  0  0  0  0  0  0  0  0  0  0  0
    4.8105    4.4396    6.5140 C   0  0  0  0  0  0  0  0  0  0  0  0
    4.1306    5.7522    6.5738 C   0  0  0  0  0  0  0  0  0  0  0  0
    9.0162   -2.2279    6.6782 H   0  0  0  0  0  0  0  0  0  0  0  0
    7.9017   -1.4960    7.8578 H   0  0  0  0  0  0  0  0  0  0  0  0
    9.3109   -0.5923    7.3165 H   0  0  0  0  0  0  0  0  0  0  0  0
    6.9426   -1.4144    5.5617 H   0  0  0  0  0  0  0  0  0  0  0  0
    8.3810   -0.4938    5.0060 H   0  0  0  0  0  0  0  0  0  0  0  0
    6.4286   -0.0283    3.7360 H   0  0  0  0  0  0  0  0  0  0  0  0
    4.1611    1.5159    3.4722 H   0  0  0  0  0  0  0  0  0  0  0  0
    6.7262    3.2037    3.1331 H   0  0  0  0  0  0  0  0  0  0  0  0
    5.9042    2.4763    9.5800 H   0  0  0  0  0  0  0  0  0  0  0  0
    7.3189    1.9044    8.6857 H   0  0  0  0  0  0  0  0  0  0  0  0
    5.8112    0.9595    8.6782 H   0  0  0  0  0  0  0  0  0  0  0  0
    3.1440    5.6948    6.1040 H   0  0  0  0  0  0  0  0  0  0  0  0
    4.7210    6.5127    6.0537 H   0  0  0  0  0  0  0  0  0  0  0  0
    3.9913    6.0813    7.6084 H   0  0  0  0  0  0  0  0  0  0  0  0
  1  2  1  0  0  0  0
  1 17  1  0  0  0  0
  1 18  1  0  0  0  0
  1 19  1  0  0  0  0
  2  3  1  0  0  0  0
  2 20  1  0  0  0  0
  2 21  1  0  0  0  0
  3  4  1  0  0  0  0
  4  5  2  0  0  0  0
  4 11  1  0  0  0  0
  5  6  1  0  0  0  0
  5 22  1  0  0  0  0
  6  7  2  0  0  0  0
  6 23  1  0  0  0  0
  7  8  1  0  0  0  0
  7 24  1  0  0  0  0
  8 10  1  0  0  0  0
  8  9  2  0  0  0  0
 10 15  2  0  0  0  0
 10 11  1  0  0  0  0
 11 12  2  0  0  0  0
 12 14  1  0  0  0  0
 12 13  1  0  0  0  0
 13 25  1  0  0  0  0
 13 26  1  0  0  0  0
 13 27  1  0  0  0  0
 14 15  1  0  0  0  0
 15 16  1  0  0  0  0
 16 28  1  0  0  0  0
 16 29  1  0  0  0  0
 16 30  1  0  0  0  0
M  END
$$$$