476310 476309
 OpenBabel01211413173D

 33 32  0  0  0  0  0  0  0  0999 V2000
    0.8863   -1.4501    1.1649 C   0  0  0  0  0  0  0  0  0  0  0  0
    2.3780   -1.6879    1.3133 C   0  0  0  0  0  0  0  0  0  0  0  0
    3.0551   -0.4599    1.0714 O   0  0  0  0  0  0  0  0  0  0  0  0
    4.7270   -0.4563    1.1140 Si  0  0  0  0  0  0  0  0  0  0  0  0
    5.4374   -1.5577   -0.2813 C   0  0  0  0  0  0  0  0  0  0  0  0
    5.0265   -1.1511   -1.6721 C   0  0  0  0  0  0  0  0  0  0  0  0
    4.1383   -1.8184   -2.4203 C   0  0  0  0  0  0  0  0  0  0  0  0
    5.2582    1.1189    0.9477 O   0  0  0  0  0  0  0  0  0  0  0  0
    4.7337    2.1077    1.8265 C   0  0  0  0  0  0  0  0  0  0  0  0
    5.2874    3.4576    1.4057 C   0  0  0  0  0  0  0  0  0  0  0  0
    5.1897   -1.0144    2.6185 O   0  0  0  0  0  0  0  0  0  0  0  0
    6.5676   -1.0133    2.9671 C   0  0  0  0  0  0  0  0  0  0  0  0
    6.6821   -1.4711    4.4104 C   0  0  0  0  0  0  0  0  0  0  0  0
    0.3269   -2.3729    1.3424 H   0  0  0  0  0  0  0  0  0  0  0  0
    0.6529   -1.0832    0.1601 H   0  0  0  0  0  0  0  0  0  0  0  0
    0.5450   -0.6873    1.8723 H   0  0  0  0  0  0  0  0  0  0  0  0
    2.6888   -2.4530    0.5915 H   0  0  0  0  0  0  0  0  0  0  0  0
    2.5870   -2.0472    2.3285 H   0  0  0  0  0  0  0  0  0  0  0  0
    5.1371   -2.5922   -0.0774 H   0  0  0  0  0  0  0  0  0  0  0  0
    6.5313   -1.5307   -0.2192 H   0  0  0  0  0  0  0  0  0  0  0  0
    5.5014   -0.2611   -2.0853 H   0  0  0  0  0  0  0  0  0  0  0  0
    3.6313   -2.7050   -2.0534 H   0  0  0  0  0  0  0  0  0  0  0  0
    3.8839   -1.4732   -3.4185 H   0  0  0  0  0  0  0  0  0  0  0  0
    5.0408    1.8985    2.8588 H   0  0  0  0  0  0  0  0  0  0  0  0
    3.6384    2.1389    1.7759 H   0  0  0  0  0  0  0  0  0  0  0  0
    6.3824    3.4479    1.4163 H   0  0  0  0  0  0  0  0  0  0  0  0
    4.9340    4.2489    2.0728 H   0  0  0  0  0  0  0  0  0  0  0  0
    4.9802    3.6965    0.3821 H   0  0  0  0  0  0  0  0  0  0  0  0
    6.9958   -0.0078    2.8737 H   0  0  0  0  0  0  0  0  0  0  0  0
    7.1243   -1.7039    2.3224 H   0  0  0  0  0  0  0  0  0  0  0  0
    6.1295   -0.7961    5.0727 H   0  0  0  0  0  0  0  0  0  0  0  0
    7.7275   -1.5008    4.7294 H   0  0  0  0  0  0  0  0  0  0  0  0
    6.2447   -2.4672    4.5349 H   0  0  0  0  0  0  0  0  0  0  0  0
  1  2  1  0  0  0  0
  1 14  1  0  0  0  0
  1 15  1  0  0  0  0
  1 16  1  0  0  0  0
  2  3  1  0  0  0  0
  2 17  1  0  0  0  0
  2 18  1  0  0  0  0
  3  4  1  0  0  0  0
  4 11  1  0  0  0  0
  4  8  1  0  0  0  0
  4  5  1  0  0  0  0
  5  6  1  0  0  0  0
  5 19  1  0  0  0  0
  5 20  1  0  0  0  0
  6  7  2  0  0  0  0
  6 21  1  0  0  0  0
  7 22  1  0  0  0  0
  7 23  1  0  0  0  0
  8  9  1  0  0  0  0
  9 10  1  0  0  0  0
  9 24  1  0  0  0  0
  9 25  1  0  0  0  0
 10 26  1  0  0  0  0
 10 27  1  0  0  0  0
 10 28  1  0  0  0  0
 11 12  1  0  0  0  0
 12 13  1  0  0  0  0
 12 29  1  0  0  0  0
 12 30  1  0  0  0  0
 13 31  1  0  0  0  0
 13 32  1  0  0  0  0
 13 33  1  0  0  0  0
M  END
$$$$