26477580 26477579
 OpenBabel01211414043D

 32 34  0  0  0  0  0  0  0  0999 V2000
    3.1684   -0.6109    4.7615 Cl  0  0  0  0  0  0  0  0  0  0  0  0
    4.4938   -0.6310    3.6647 C   0  0  0  0  0  0  0  0  0  0  0  0
    4.2655   -0.8450    2.3064 C   0  0  0  0  0  0  0  0  0  0  0  0
    5.3418   -0.8625    1.4164 C   0  0  0  0  0  0  0  0  0  0  0  0
    6.6429   -0.6668    1.8931 C   0  0  0  0  0  0  0  0  0  0  0  0
    6.8698   -0.4526    3.2556 C   0  0  0  0  0  0  0  0  0  0  0  0
    5.7904   -0.4338    4.1433 C   0  0  0  0  0  0  0  0  0  0  0  0
    7.7955   -0.6935    0.9706 C   0  0  0  0  0  0  0  0  0  0  0  0
    7.6430   -0.8533   -0.2998 N   0  0  0  0  0  0  0  0  0  0  0  0
    8.9021   -0.8782   -1.0581 C   0  0  0  0  0  0  0  0  0  0  0  0
    9.4299   -2.2791   -1.1321 C   0  0  0  0  0  0  0  0  0  0  0  0
    8.7984   -3.4008   -1.6281 C   0  0  0  0  0  0  0  0  0  0  0  0
    9.6059   -4.5700   -1.5190 C   0  0  0  0  0  0  0  0  0  0  0  0
   10.8408   -4.3175   -0.9482 C   0  0  0  0  0  0  0  0  0  0  0  0
   10.9979   -2.6504   -0.5615 S   0  0  0  0  0  0  0  0  0  0  0  0
   11.9008   -5.2615   -0.6717 C   0  0  0  0  0  0  0  0  0  0  0  0
   13.2607   -5.0147   -0.5874 C   0  0  0  0  0  0  0  0  0  0  0  0
   14.0204   -6.1832   -0.2843 C   0  0  0  0  0  0  0  0  0  0  0  0
   13.2202   -7.2923   -0.1420 C   0  0  0  0  0  0  0  0  0  0  0  0
   11.5700   -6.9257   -0.3830 S   0  0  0  0  0  0  0  0  0  0  0  0
    3.2564   -1.0009    1.9333 H   0  0  0  0  0  0  0  0  0  0  0  0
    5.1638   -1.0331    0.3570 H   0  0  0  0  0  0  0  0  0  0  0  0
    7.8763   -0.3012    3.6378 H   0  0  0  0  0  0  0  0  0  0  0  0
    5.9648   -0.2679    5.2032 H   0  0  0  0  0  0  0  0  0  0  0  0
    8.7948   -0.5758    1.4295 H   0  0  0  0  0  0  0  0  0  0  0  0
    9.6382   -0.1789   -0.6411 H   0  0  0  0  0  0  0  0  0  0  0  0
    8.6930   -0.5240   -2.0748 H   0  0  0  0  0  0  0  0  0  0  0  0
    7.7947   -3.3809   -2.0372 H   0  0  0  0  0  0  0  0  0  0  0  0
    9.2850   -5.5502   -1.8497 H   0  0  0  0  0  0  0  0  0  0  0  0
   13.7023   -4.0378   -0.7420 H   0  0  0  0  0  0  0  0  0  0  0  0
   15.0980   -6.2052   -0.1758 H   0  0  0  0  0  0  0  0  0  0  0  0
   13.5243   -8.3042    0.0899 H   0  0  0  0  0  0  0  0  0  0  0  0
  1  2  1  0  0  0  0
  2  3  2  0  0  0  0
  2  7  1  0  0  0  0
  3  4  1  0  0  0  0
  3 21  1  0  0  0  0
  4  5  2  0  0  0  0
  4 22  1  0  0  0  0
  5  6  1  0  0  0  0
  5  8  1  0  0  0  0
  6  7  2  0  0  0  0
  6 23  1  0  0  0  0
  7 24  1  0  0  0  0
  8  9  2  0  0  0  0
  8 25  1  0  0  0  0
  9 10  1  0  0  0  0
 10 11  1  0  0  0  0
 10 26  1  0  0  0  0
 10 27  1  0  0  0  0
 11 12  2  0  0  0  0
 11 15  1  0  0  0  0
 12 13  1  0  0  0  0
 12 28  1  0  0  0  0
 13 14  2  0  0  0  0
 13 29  1  0  0  0  0
 14 15  1  0  0  0  0
 14 16  1  0  0  0  0
 16 17  2  0  0  0  0
 16 20  1  0  0  0  0
 17 18  1  0  0  0  0
 17 30  1  0  0  0  0
 18 19  2  0  0  0  0
 18 31  1  0  0  0  0
 19 20  1  0  0  0  0
 19 32  1  0  0  0  0
M  END
$$$$