10434656 10434655
 OpenBabel01211413583D

 48 48  0  0  0  0  0  0  0  0999 V2000
    0.9239    0.8934   -1.5217 C   0  0  0  0  0  0  0  0  0  0  0  0
    1.9967    0.5182   -0.8110 C   0  0  0  0  0  0  0  0  0  0  0  0
    3.2546   -0.7711   -1.2899 Si  0  0  3  0  0  0  0  0  0  0  0  0
    4.4390   -0.9393    0.1239 C   0  0  0  0  0  0  0  0  0  0  0  0
    2.3740   -2.1789   -1.5042 N   0  0  0  0  0  0  0  0  0  0  0  0
    2.7596   -3.3550   -2.6310 Si  0  0  3  0  0  0  0  0  0  0  0  0
    2.2703   -2.9192   -4.3575 C   0  0  0  0  0  0  0  0  0  0  0  0
    1.7133   -4.8206   -2.1313 C   0  0  0  0  0  0  0  0  0  0  0  0
    1.6037   -5.3320   -0.8979 C   0  0  0  0  0  0  0  0  0  0  0  0
    4.3172   -3.8471   -2.3248 N   0  0  0  0  0  0  0  0  0  0  0  0
    5.6390   -3.3796   -3.2178 Si  0  0  3  0  0  0  0  0  0  0  0  0
    6.0876   -1.8607   -2.7087 N   0  0  0  0  0  0  0  0  0  0  0  0
    5.4347   -0.4298   -3.2305 Si  0  0  3  0  0  0  0  0  0  0  0  0
    3.8270   -0.2832   -2.7813 N   0  0  0  0  0  0  0  0  0  0  0  0
    5.5714   -0.1855   -5.0737 C   0  0  0  0  0  0  0  0  0  0  0  0
    6.3778    0.9341   -2.4119 C   0  0  0  0  0  0  0  0  0  0  0  0
    6.1584    2.2488   -2.5491 C   0  0  0  0  0  0  0  0  0  0  0  0
    5.5813   -3.6851   -5.0301 C   0  0  0  0  0  0  0  0  0  0  0  0
    7.0144   -4.4524   -2.5206 C   0  0  0  0  0  0  0  0  0  0  0  0
    7.3556   -4.5731   -1.2311 C   0  0  0  0  0  0  0  0  0  0  0  0
    0.2505    1.6543   -1.1404 H   0  0  0  0  0  0  0  0  0  0  0  0
    0.6864    0.4566   -2.4879 H   0  0  0  0  0  0  0  0  0  0  0  0
    2.1984    0.9751    0.1517 H   0  0  0  0  0  0  0  0  0  0  0  0
    5.1036   -1.8010    0.0226 H   0  0  0  0  0  0  0  0  0  0  0  0
    3.8924   -1.0813    1.0629 H   0  0  0  0  0  0  0  0  0  0  0  0
    5.0583   -0.0455    0.2457 H   0  0  0  0  0  0  0  0  0  0  0  0
    1.3875   -1.9588   -1.5758 H   0  0  0  0  0  0  0  0  0  0  0  0
    2.7929   -2.0433   -4.7488 H   0  0  0  0  0  0  0  0  0  0  0  0
    1.1991   -2.6967   -4.4114 H   0  0  0  0  0  0  0  0  0  0  0  0
    2.4578   -3.7502   -5.0455 H   0  0  0  0  0  0  0  0  0  0  0  0
    1.1723   -5.2658   -2.9584 H   0  0  0  0  0  0  0  0  0  0  0  0
    2.1388   -4.9087   -0.0526 H   0  0  0  0  0  0  0  0  0  0  0  0
    0.9730   -6.1943   -0.7098 H   0  0  0  0  0  0  0  0  0  0  0  0
    4.4942   -3.9086   -1.3323 H   0  0  0  0  0  0  0  0  0  0  0  0
    6.3571   -1.8599   -1.7357 H   0  0  0  0  0  0  0  0  0  0  0  0
    3.5327    0.6739   -2.9452 H   0  0  0  0  0  0  0  0  0  0  0  0
    4.8749   -0.8251   -5.6219 H   0  0  0  0  0  0  0  0  0  0  0  0
    6.5838   -0.4023   -5.4284 H   0  0  0  0  0  0  0  0  0  0  0  0
    5.3372    0.8483   -5.3480 H   0  0  0  0  0  0  0  0  0  0  0  0
    7.1913    0.5903   -1.7817 H   0  0  0  0  0  0  0  0  0  0  0  0
    5.3698    2.6496   -3.1801 H   0  0  0  0  0  0  0  0  0  0  0  0
    6.7862    2.9686   -2.0303 H   0  0  0  0  0  0  0  0  0  0  0  0
    4.8105   -3.1108   -5.5469 H   0  0  0  0  0  0  0  0  0  0  0  0
    5.3877   -4.7421   -5.2433 H   0  0  0  0  0  0  0  0  0  0  0  0
    6.5373   -3.4336   -5.5016 H   0  0  0  0  0  0  0  0  0  0  0  0
    7.5502   -5.0058   -3.2836 H   0  0  0  0  0  0  0  0  0  0  0  0
    6.8390   -4.0397   -0.4367 H   0  0  0  0  0  0  0  0  0  0  0  0
    8.1704   -5.2280   -0.9340 H   0  0  0  0  0  0  0  0  0  0  0  0
  1  2  2  0  0  0  0
  1 21  1  0  0  0  0
  1 22  1  0  0  0  0
  2  3  1  0  0  0  0
  2 23  1  0  0  0  0
  3 14  1  0  0  0  0
  3  5  1  0  0  0  0
  3  4  1  0  0  0  0
  4 24  1  0  0  0  0
  4 25  1  0  0  0  0
  4 26  1  0  0  0  0
  5  6  1  0  0  0  0
  5 27  1  0  0  0  0
  6 10  1  0  0  0  0
  6  8  1  0  0  0  0
  6  7  1  0  0  0  0
  7 28  1  0  0  0  0
  7 29  1  0  0  0  0
  7 30  1  0  0  0  0
  8  9  2  0  0  0  0
  8 31  1  0  0  0  0
  9 32  1  0  0  0  0
  9 33  1  0  0  0  0
 10 11  1  0  0  0  0
 10 34  1  0  0  0  0
 11 12  1  0  0  0  0
 11 19  1  0  0  0  0
 11 18  1  0  0  0  0
 12 13  1  0  0  0  0
 12 35  1  0  0  0  0
 13 14  1  0  0  0  0
 13 16  1  0  0  0  0
 13 15  1  0  0  0  0
 14 36  1  0  0  0  0
 15 37  1  0  0  0  0
 15 38  1  0  0  0  0
 15 39  1  0  0  0  0
 16 17  2  0  0  0  0
 16 40  1  0  0  0  0
 17 41  1  0  0  0  0
 17 42  1  0  0  0  0
 18 43  1  0  0  0  0
 18 44  1  0  0  0  0
 18 45  1  0  0  0  0
 19 20  2  0  0  0  0
 19 46  1  0  0  0  0
 20 47  1  0  0  0  0
 20 48  1  0  0  0  0
M  END
$$$$