1549544 1549543
 OpenBabel01211413443D

 37 38  0  0  0  0  0  0  0  0999 V2000
    5.1554    3.6890    0.8986 C   0  0  0  0  0  0  0  0  0  0  0  0
    4.4954    2.5353    1.0635 C   0  0  0  0  0  0  0  0  0  0  0  0
    5.1172    1.1735    0.9876 C   0  0  0  0  0  0  0  0  0  0  0  0
    4.7541    0.5645   -0.2879 N   0  0  0  0  0  0  0  0  0  0  0  0
    3.6554   -0.2801   -0.3224 C   0  0  0  0  0  0  0  0  0  0  0  0
    2.9713   -0.5203    0.6737 O   0  0  0  0  0  0  0  0  0  0  0  0
    3.2855   -0.8998   -1.6463 C   0  0  0  0  0  0  0  0  0  0  0  0
    5.5687    0.9174   -1.4592 C   0  0  0  0  0  0  0  0  0  0  0  0
    6.9425    0.3644   -1.3300 C   0  0  0  0  0  0  0  0  0  0  0  0
    7.9599    1.2704   -1.3192 O   0  0  0  0  0  0  0  0  0  0  0  0
    9.1313    0.5484   -1.1210 N   0  0  0  0  0  0  0  0  0  0  0  0
    8.7145   -0.7265   -1.0276 C   0  0  0  0  0  0  0  0  0  0  0  0
    7.3494   -0.8752   -1.1740 N   0  0  0  0  0  0  0  0  0  0  0  0
    9.6019   -1.8576   -0.7780 C   0  0  0  0  0  0  0  0  0  0  0  0
    9.0891   -3.1607   -0.7236 C   0  0  0  0  0  0  0  0  0  0  0  0
    9.9317   -4.2494   -0.4771 C   0  0  0  0  0  0  0  0  0  0  0  0
   11.3033   -4.0554   -0.2792 C   0  0  0  0  0  0  0  0  0  0  0  0
   11.8195   -2.7567   -0.3286 C   0  0  0  0  0  0  0  0  0  0  0  0
   10.9767   -1.6683   -0.5768 C   0  0  0  0  0  0  0  0  0  0  0  0
   12.1954   -5.2311   -0.0107 C   0  0  0  0  0  0  0  0  0  0  0  0
    4.6380    4.6395    0.9857 H   0  0  0  0  0  0  0  0  0  0  0  0
    6.2170    3.7142    0.6711 H   0  0  0  0  0  0  0  0  0  0  0  0
    3.4328    2.5579    1.3017 H   0  0  0  0  0  0  0  0  0  0  0  0
    4.7584    0.5664    1.8261 H   0  0  0  0  0  0  0  0  0  0  0  0
    6.2079    1.2200    1.0798 H   0  0  0  0  0  0  0  0  0  0  0  0
    4.1223   -1.4785   -2.0449 H   0  0  0  0  0  0  0  0  0  0  0  0
    2.9769   -0.1216   -2.3500 H   0  0  0  0  0  0  0  0  0  0  0  0
    2.4413   -1.5802   -1.5023 H   0  0  0  0  0  0  0  0  0  0  0  0
    5.5914    2.0090   -1.5441 H   0  0  0  0  0  0  0  0  0  0  0  0
    5.1279    0.5428   -2.3848 H   0  0  0  0  0  0  0  0  0  0  0  0
    8.0255   -3.3397   -0.8702 H   0  0  0  0  0  0  0  0  0  0  0  0
    9.5084   -5.2509   -0.4384 H   0  0  0  0  0  0  0  0  0  0  0  0
   12.8813   -2.5785   -0.1731 H   0  0  0  0  0  0  0  0  0  0  0  0
   11.4077   -0.6693   -0.6067 H   0  0  0  0  0  0  0  0  0  0  0  0
   13.2423   -4.9264    0.0895 H   0  0  0  0  0  0  0  0  0  0  0  0
   12.1334   -5.9478   -0.8358 H   0  0  0  0  0  0  0  0  0  0  0  0
   11.8977   -5.7252    0.9197 H   0  0  0  0  0  0  0  0  0  0  0  0
  1  2  2  0  0  0  0
  1 21  1  0  0  0  0
  1 22  1  0  0  0  0
  2  3  1  0  0  0  0
  2 23  1  0  0  0  0
  3  4  1  0  0  0  0
  3 24  1  0  0  0  0
  3 25  1  0  0  0  0
  4  8  1  0  0  0  0
  4  5  1  0  0  0  0
  5  7  1  0  0  0  0
  5  6  2  0  0  0  0
  7 26  1  0  0  0  0
  7 27  1  0  0  0  0
  7 28  1  0  0  0  0
  8  9  1  0  0  0  0
  8 29  1  0  0  0  0
  8 30  1  0  0  0  0
  9 13  2  0  0  0  0
  9 10  1  0  0  0  0
 10 11  1  0  0  0  0
 11 12  2  0  0  0  0
 12 13  1  0  0  0  0
 12 14  1  0  0  0  0
 14 15  2  0  0  0  0
 14 19  1  0  0  0  0
 15 16  1  0  0  0  0
 15 31  1  0  0  0  0
 16 17  2  0  0  0  0
 16 32  1  0  0  0  0
 17 18  1  0  0  0  0
 17 20  1  0  0  0  0
 18 19  2  0  0  0  0
 18 33  1  0  0  0  0
 19 34  1  0  0  0  0
 20 35  1  0  0  0  0
 20 36  1  0  0  0  0
 20 37  1  0  0  0  0
M  END
$$$$