11739173 11739172
 OpenBabel01211413593D

 41 43  0  0  0  0  0  0  0  0999 V2000
    0.9089    0.5380   -0.4503 O   0  0  0  0  0  0  0  0  0  0  0  0
    2.0733    0.1422   -0.3560 C   0  0  0  0  0  0  0  0  0  0  0  0
    3.0656    0.5488   -1.2595 N   0  0  0  0  0  0  0  0  0  0  0  0
    4.4536    0.5733   -0.9481 C   0  0  0  0  0  0  0  0  0  0  0  0
    4.9100    1.0632    0.2785 C   0  0  0  0  0  0  0  0  0  0  0  0
    6.2782    1.0976    0.5608 C   0  0  0  0  0  0  0  0  0  0  0  0
    7.2152    0.6389   -0.3762 C   0  0  0  0  0  0  0  0  0  0  0  0
    6.7625    0.1476   -1.6216 C   0  0  0  0  0  0  0  0  0  0  0  0
    5.3841    0.1346   -1.8973 C   0  0  0  0  0  0  0  0  0  0  0  0
    7.7007   -0.3216   -2.5553 C   0  0  0  0  0  0  0  0  0  0  0  0
    9.0663   -0.3007   -2.2672 C   0  0  0  0  0  0  0  0  0  0  0  0
    9.5118    0.1921   -1.0443 C   0  0  0  0  0  0  0  0  0  0  0  0
    8.5926    0.6597   -0.1041 C   0  0  0  0  0  0  0  0  0  0  0  0
    2.6467    1.3770   -2.3859 C   0  0  0  0  0  0  0  0  0  0  0  0
    2.4981   -0.8723    0.7096 C   0  0  0  0  0  0  0  0  0  0  0  0
    1.4231   -1.8390    1.1697 C   0  0  0  0  0  0  0  0  0  0  0  0
    0.5781   -2.4913    0.2630 C   0  0  0  0  0  0  0  0  0  0  0  0
   -0.3638   -3.4195    0.7111 C   0  0  0  0  0  0  0  0  0  0  0  0
   -0.4601   -3.7232    2.0684 C   0  0  0  0  0  0  0  0  0  0  0  0
    0.3871   -3.1027    2.9949 C   0  0  0  0  0  0  0  0  0  0  0  0
    1.3267   -2.1646    2.5329 C   0  0  0  0  0  0  0  0  0  0  0  0
    0.3142   -3.4273    4.4659 C   0  0  0  0  0  0  0  0  0  0  0  0
    1.4903   -3.9193    4.9479 F   0  0  0  0  0  0  0  0  0  0  0  0
    0.0288   -2.3357    5.2292 F   0  0  0  0  0  0  0  0  0  0  0  0
   -0.6318   -4.3574    4.7772 F   0  0  0  0  0  0  0  0  0  0  0  0
    4.2181    1.4690    1.0118 H   0  0  0  0  0  0  0  0  0  0  0  0
    6.6081    1.4955    1.5184 H   0  0  0  0  0  0  0  0  0  0  0  0
    5.0349   -0.2586   -2.8493 H   0  0  0  0  0  0  0  0  0  0  0  0
    7.3737   -0.7110   -3.5170 H   0  0  0  0  0  0  0  0  0  0  0  0
    9.7813   -0.6692   -2.9983 H   0  0  0  0  0  0  0  0  0  0  0  0
   10.5753    0.2114   -0.8203 H   0  0  0  0  0  0  0  0  0  0  0  0
    8.9609    1.0399    0.8463 H   0  0  0  0  0  0  0  0  0  0  0  0
    1.6701    1.0473   -2.7535 H   0  0  0  0  0  0  0  0  0  0  0  0
    3.3592    1.3272   -3.2132 H   0  0  0  0  0  0  0  0  0  0  0  0
    2.5571    2.4126   -2.0413 H   0  0  0  0  0  0  0  0  0  0  0  0
    2.8446   -0.2955    1.5740 H   0  0  0  0  0  0  0  0  0  0  0  0
    3.3308   -1.4821    0.3408 H   0  0  0  0  0  0  0  0  0  0  0  0
    0.6360   -2.2742   -0.8017 H   0  0  0  0  0  0  0  0  0  0  0  0
   -1.0238   -3.9065   -0.0027 H   0  0  0  0  0  0  0  0  0  0  0  0
   -1.1998   -4.4510    2.3980 H   0  0  0  0  0  0  0  0  0  0  0  0
    1.9931   -1.6877    3.2516 H   0  0  0  0  0  0  0  0  0  0  0  0
  1  2  2  0  0  0  0
  2 15  1  0  0  0  0
  2  3  1  0  0  0  0
  3 14  1  0  0  0  0
  3  4  1  0  0  0  0
  4  5  2  0  0  0  0
  4  9  1  0  0  0  0
  5  6  1  0  0  0  0
  5 26  1  0  0  0  0
  6  7  2  0  0  0  0
  6 27  1  0  0  0  0
  7 13  1  0  0  0  0
  7  8  1  0  0  0  0
  8 10  1  0  0  0  0
  8  9  2  0  0  0  0
  9 28  1  0  0  0  0
 10 11  2  0  0  0  0
 10 29  1  0  0  0  0
 11 12  1  0  0  0  0
 11 30  1  0  0  0  0
 12 13  2  0  0  0  0
 12 31  1  0  0  0  0
 13 32  1  0  0  0  0
 14 33  1  0  0  0  0
 14 34  1  0  0  0  0
 14 35  1  0  0  0  0
 15 16  1  0  0  0  0
 15 36  1  0  0  0  0
 15 37  1  0  0  0  0
 16 17  2  0  0  0  0
 16 21  1  0  0  0  0
 17 18  1  0  0  0  0
 17 38  1  0  0  0  0
 18 19  2  0  0  0  0
 18 39  1  0  0  0  0
 19 20  1  0  0  0  0
 19 40  1  0  0  0  0
 20 21  2  0  0  0  0
 20 22  1  0  0  0  0
 21 41  1  0  0  0  0
 22 25  1  0  0  0  0
 22 24  1  0  0  0  0
 22 23  1  0  0  0  0
M  END
$$$$