1336173 1336172
 OpenBabel01211413423D

 55 58  0  0  1  0  0  0  0  0999 V2000
    7.4900    6.5378   -4.4284 F   0  0  0  0  0  0  0  0  0  0  0  0
    6.9388    5.3279   -4.2696 C   0  0  0  0  0  0  0  0  0  0  0  0
    5.8003    4.9916   -4.9872 C   0  0  0  0  0  0  0  0  0  0  0  0
    5.2183    3.7299   -4.8200 C   0  0  0  0  0  0  0  0  0  0  0  0
    5.7580    2.7998   -3.9176 C   0  0  0  0  0  0  0  0  0  0  0  0
    6.9194    3.1726   -3.2070 C   0  0  0  0  0  0  0  0  0  0  0  0
    7.5092    4.4258   -3.3863 C   0  0  0  0  0  0  0  0  0  0  0  0
    5.1559    1.4189   -3.6406 C   0  0  3  0  0  0  0  0  0  0  0  0
    3.6737    1.1337   -4.0021 C   0  0  3  0  0  0  0  0  0  0  0  0
    3.5194    0.8515   -5.4773 C   0  0  0  0  0  0  0  0  0  0  0  0
    2.6775    1.4030   -6.1818 O   0  0  0  0  0  0  0  0  0  0  0  0
    4.3722   -0.2768   -6.0193 C   0  0  0  0  0  0  0  0  0  0  0  0
    5.8545   -0.0751   -5.6893 C   0  0  3  0  0  0  0  0  0  0  0  0
    6.1008    0.2949   -4.2021 C   0  0  3  0  0  0  0  0  0  0  0  0
    5.9617   -0.9475   -3.3073 C   0  0  0  0  0  0  0  0  0  0  0  0
    4.8699   -1.4802   -3.1019 O   0  0  0  0  0  0  0  0  0  0  0  0
    7.1525   -1.4940   -2.5985 C   0  0  0  0  0  0  0  0  0  0  0  0
    6.9526   -2.1197   -1.3598 C   0  0  0  0  0  0  0  0  0  0  0  0
    8.0315   -2.6486   -0.6539 C   0  0  0  0  0  0  0  0  0  0  0  0
    9.3186   -2.5623   -1.1846 C   0  0  0  0  0  0  0  0  0  0  0  0
    9.5225   -1.9538   -2.4232 C   0  0  0  0  0  0  0  0  0  0  0  0
    8.4432   -1.4228   -3.1340 C   0  0  0  0  0  0  0  0  0  0  0  0
    6.4753    0.9501   -6.6505 C   0  0  0  0  0  0  0  0  0  0  0  0
    6.5616   -1.3002   -5.9535 O   0  0  0  0  0  0  0  0  0  0  0  0
    2.6508    2.0883   -3.3961 C   0  0  0  0  0  0  0  0  0  0  0  0
    2.7385    3.3115   -3.4443 O   0  0  0  0  0  0  0  0  0  0  0  0
    1.5110    1.5069   -2.6325 C   0  0  0  0  0  0  0  0  0  0  0  0
    0.9016    0.3013   -2.9948 C   0  0  0  0  0  0  0  0  0  0  0  0
   -0.1242   -0.2252   -2.2074 C   0  0  0  0  0  0  0  0  0  0  0  0
   -0.5507    0.4551   -1.0659 C   0  0  0  0  0  0  0  0  0  0  0  0
    0.0378    1.6687   -0.7148 C   0  0  0  0  0  0  0  0  0  0  0  0
    1.0626    2.1979   -1.4982 C   0  0  0  0  0  0  0  0  0  0  0  0
    5.3543    5.7175   -5.6605 H   0  0  0  0  0  0  0  0  0  0  0  0
    4.3162    3.5195   -5.3896 H   0  0  0  0  0  0  0  0  0  0  0  0
    7.3704    2.4884   -2.4906 H   0  0  0  0  0  0  0  0  0  0  0  0
    8.3990    4.7064   -2.8317 H   0  0  0  0  0  0  0  0  0  0  0  0
    5.1789    1.3485   -2.5405 H   0  0  0  0  0  0  0  0  0  0  0  0
    3.4329    0.1737   -3.5376 H   0  0  0  0  0  0  0  0  0  0  0  0
    3.9979   -1.2190   -5.6038 H   0  0  0  0  0  0  0  0  0  0  0  0
    4.2247   -0.3499   -7.1029 H   0  0  0  0  0  0  0  0  0  0  0  0
    7.1379    0.6320   -4.1058 H   0  0  0  0  0  0  0  0  0  0  0  0
    5.9505   -2.1998   -0.9411 H   0  0  0  0  0  0  0  0  0  0  0  0
    7.8697   -3.1338    0.3052 H   0  0  0  0  0  0  0  0  0  0  0  0
   10.1600   -2.9810   -0.6380 H   0  0  0  0  0  0  0  0  0  0  0  0
   10.5247   -1.9054   -2.8428 H   0  0  0  0  0  0  0  0  0  0  0  0
    8.6262   -0.9903   -4.1143 H   0  0  0  0  0  0  0  0  0  0  0  0
    5.9554    1.9083   -6.6449 H   0  0  0  0  0  0  0  0  0  0  0  0
    6.4538    0.5745   -7.6814 H   0  0  0  0  0  0  0  0  0  0  0  0
    7.5307    1.1190   -6.4133 H   0  0  0  0  0  0  0  0  0  0  0  0
    6.3438   -1.5976   -6.8555 H   0  0  0  0  0  0  0  0  0  0  0  0
    1.2002   -0.2391   -3.8896 H   0  0  0  0  0  0  0  0  0  0  0  0
   -0.5943   -1.1649   -2.4844 H   0  0  0  0  0  0  0  0  0  0  0  0
   -1.3487    0.0409   -0.4531 H   0  0  0  0  0  0  0  0  0  0  0  0
   -0.3016    2.2036    0.1688 H   0  0  0  0  0  0  0  0  0  0  0  0
    1.5193    3.1459   -1.2177 H   0  0  0  0  0  0  0  0  0  0  0  0
  1  2  1  0  0  0  0
  2  3  2  0  0  0  0
  2  7  1  0  0  0  0
  3  4  1  0  0  0  0
  3 33  1  0  0  0  0
  4  5  2  0  0  0  0
  4 34  1  0  0  0  0
  5  6  1  0  0  0  0
  5  8  1  0  0  0  0
  6  7  2  0  0  0  0
  6 35  1  0  0  0  0
  7 36  1  0  0  0  0
  8 14  1  0  0  0  0
  8  9  1  0  0  0  0
  8 37  1  0  0  0  0
  9 10  1  0  0  0  0
  9 25  1  0  0  0  0
  9 38  1  0  0  0  0
 10 12  1  0  0  0  0
 10 11  2  0  0  0  0
 12 13  1  0  0  0  0
 12 39  1  0  0  0  0
 12 40  1  0  0  0  0
 13 14  1  0  0  0  0
 13 24  1  0  0  0  0
 13 23  1  0  0  0  0
 14 15  1  0  0  0  0
 14 41  1  0  0  0  0
 15 17  1  0  0  0  0
 15 16  2  0  0  0  0
 17 18  2  0  0  0  0
 17 22  1  0  0  0  0
 18 19  1  0  0  0  0
 18 42  1  0  0  0  0
 19 20  2  0  0  0  0
 19 43  1  0  0  0  0
 20 21  1  0  0  0  0
 20 44  1  0  0  0  0
 21 22  2  0  0  0  0
 21 45  1  0  0  0  0
 22 46  1  0  0  0  0
 23 47  1  0  0  0  0
 23 48  1  0  0  0  0
 23 49  1  0  0  0  0
 24 50  1  0  0  0  0
 25 27  1  0  0  0  0
 25 26  2  0  0  0  0
 27 28  2  0  0  0  0
 27 32  1  0  0  0  0
 28 29  1  0  0  0  0
 28 51  1  0  0  0  0
 29 30  2  0  0  0  0
 29 52  1  0  0  0  0
 30 31  1  0  0  0  0
 30 53  1  0  0  0  0
 31 32  2  0  0  0  0
 31 54  1  0  0  0  0
 32 55  1  0  0  0  0
M  END
$$$$