720300 720299
 OpenBabel01211413323D

 11 11  0  0  0  0  0  0  0  0999 V2000
    3.4339   -1.6747    1.4660 O   0  0  0  0  0  0  0  0  0  0  0  0
    3.5339   -0.9186    0.5712 C   0  0  0  0  0  0  0  0  0  0  0  0
    3.6362   -0.1698   -0.3286 N   0  0  0  0  0  0  0  0  0  0  0  0
    4.1501    1.0700    0.0767 C   0  0  0  0  0  0  0  0  0  0  0  0
    3.4158    2.2316    0.0248 C   0  0  0  0  0  0  0  0  0  0  0  0
    4.3352    3.5796    0.5476 S   0  0  0  0  0  0  0  0  0  0  0  0
    5.7251    2.6079    0.7961 C   0  0  0  0  0  0  0  0  0  0  0  0
    5.4949    1.2828    0.4926 C   0  0  0  0  0  0  0  0  0  0  0  0
    2.3885    2.3593   -0.2866 H   0  0  0  0  0  0  0  0  0  0  0  0
    6.6449    3.0585    1.1441 H   0  0  0  0  0  0  0  0  0  0  0  0
    6.2558    0.5159    0.5698 H   0  0  0  0  0  0  0  0  0  0  0  0
  1  2  2  0  0  0  0
  2  3  2  0  0  0  0
  3  4  1  0  0  0  0
  4  5  2  0  0  0  0
  4  8  1  0  0  0  0
  5  6  1  0  0  0  0
  5  9  1  0  0  0  0
  6  7  1  0  0  0  0
  7  8  2  0  0  0  0
  7 10  1  0  0  0  0
  8 11  1  0  0  0  0
M  END
$$$$