31508629 31508628
 OpenBabel01211414073D

 24 26  0  0  0  0  0  0  0  0999 V2000
    4.8148    2.9149   -1.3307 Cl  0  0  0  0  0  0  0  0  0  0  0  0
    5.6774    1.3295   -0.3814 S   0  0  0  0  0  0  0  0  0  0  0  0
    5.0901    0.1341   -0.9494 O   0  0  0  0  0  0  0  0  0  0  0  0
    7.1034    1.5783   -0.3660 O   0  0  0  0  0  0  0  0  0  0  0  0
    5.1707    1.3435    1.3309 C   0  0  0  0  0  0  0  0  0  0  0  0
    4.3306    2.3212    1.8306 O   0  0  0  0  0  0  0  0  0  0  0  0
    4.1231    2.0656    3.1472 C   0  0  0  0  0  0  0  0  0  0  0  0
    4.8089    0.9402    3.5247 C   0  0  0  0  0  0  0  0  0  0  0  0
    5.4823    0.4753    2.3737 C   0  0  0  0  0  0  0  0  0  0  0  0
    4.8099    0.3593    4.8852 C   0  0  0  0  0  0  0  0  0  0  0  0
    4.1436    0.8617    5.9066 N   0  0  0  0  0  0  0  0  0  0  0  0
    4.3887    0.0395    6.9860 N   0  0  0  0  0  0  0  0  0  0  0  0
    5.1894   -0.9125    6.5565 C   0  0  0  0  0  0  0  0  0  0  0  0
    5.5031   -0.7739    5.2301 O   0  0  0  0  0  0  0  0  0  0  0  0
    5.6968   -2.0348    7.4443 C   0  0  0  0  0  0  0  0  0  0  0  0
    5.9106   -3.4031    6.8289 C   0  0  0  0  0  0  0  0  0  0  0  0
    7.0916   -2.5760    7.2041 C   0  0  0  0  0  0  0  0  0  0  0  0
    3.4750    2.7594    3.6674 H   0  0  0  0  0  0  0  0  0  0  0  0
    6.1235   -0.3922    2.2866 H   0  0  0  0  0  0  0  0  0  0  0  0
    5.3446   -1.9945    8.4688 H   0  0  0  0  0  0  0  0  0  0  0  0
    5.7000   -3.5425    5.7742 H   0  0  0  0  0  0  0  0  0  0  0  0
    5.6787   -4.2693    7.4387 H   0  0  0  0  0  0  0  0  0  0  0  0
    7.6697   -2.8752    8.0714 H   0  0  0  0  0  0  0  0  0  0  0  0
    7.6894   -2.1483    6.4069 H   0  0  0  0  0  0  0  0  0  0  0  0
  1  2  1  0  0  0  0
  2  5  1  0  0  0  0
  2  4  2  0  0  0  0
  2  3  2  0  0  0  0
  5  6  1  0  0  0  0
  5  9  2  0  0  0  0
  6  7  1  0  0  0  0
  7  8  2  0  0  0  0
  7 18  1  0  0  0  0
  8  9  1  0  0  0  0
  8 10  1  0  0  0  0
  9 19  1  0  0  0  0
 10 14  1  0  0  0  0
 10 11  2  0  0  0  0
 11 12  1  0  0  0  0
 12 13  2  0  0  0  0
 13 14  1  0  0  0  0
 13 15  1  0  0  0  0
 15 17  1  0  0  0  0
 15 16  1  0  0  0  0
 15 20  1  0  0  0  0
 16 17  1  0  0  0  0
 16 21  1  0  0  0  0
 16 22  1  0  0  0  0
 17 23  1  0  0  0  0
 17 24  1  0  0  0  0
M  END
$$$$