58627 58626
 OpenBabel01211413153D

 15 15  0  0  0  0  0  0  0  0999 V2000
    1.4729   -0.0353   -0.9778 O   0  0  0  0  0  0  0  0  0  0  0  0
    2.3049   -0.0174   -0.0818 C   0  0  0  0  0  0  0  0  0  0  0  0
    2.9126    1.2177    0.4313 C   0  0  0  0  0  0  0  0  0  0  0  0
    2.4750    2.4895    0.1496 C   0  0  0  0  0  0  0  0  0  0  0  0
    1.1067    2.8699   -0.8230 Cl  0  0  0  0  0  0  0  0  0  0  0  0
    3.0482    3.6159    0.6318 N   0  0  0  0  0  0  0  0  0  0  0  0
    4.1104    3.4657    1.4300 C   0  0  0  0  0  0  0  0  0  0  0  0
    4.6178    2.2782    1.7756 N   0  0  0  0  0  0  0  0  0  0  0  0
    4.0053    1.1896    1.2656 C   0  0  0  0  0  0  0  0  0  0  0  0
    4.7801   -0.2625    1.7819 Cl  0  0  0  0  0  0  0  0  0  0  0  0
    4.7554    4.7010    1.9749 C   0  0  0  0  0  0  0  0  0  0  0  0
    2.6338   -0.9687    0.3654 H   0  0  0  0  0  0  0  0  0  0  0  0
    5.6489    4.4540    2.5562 H   0  0  0  0  0  0  0  0  0  0  0  0
    4.0529    5.2310    2.6249 H   0  0  0  0  0  0  0  0  0  0  0  0
    5.0483    5.3626    1.1544 H   0  0  0  0  0  0  0  0  0  0  0  0
  1  2  2  0  0  0  0
  2  3  1  0  0  0  0
  2 12  1  0  0  0  0
  3  9  1  0  0  0  0
  3  4  2  0  0  0  0
  4  6  1  0  0  0  0
  4  5  1  0  0  0  0
  6  7  2  0  0  0  0
  7  8  1  0  0  0  0
  7 11  1  0  0  0  0
  8  9  2  0  0  0  0
  9 10  1  0  0  0  0
 11 13  1  0  0  0  0
 11 14  1  0  0  0  0
 11 15  1  0  0  0  0
M  END
$$$$