500469 500468
 OpenBabel01211413193D

 13 13  0  0  0  0  0  0  0  0999 V2000
    0.9466    0.2011    0.2337 Cl  0  0  0  0  0  0  0  0  0  0  0  0
    2.6725    0.1469    0.1217 N   0  0  0  0  0  0  0  0  0  0  0  0
    3.1740   -1.0409    0.2623 C   0  0  0  0  0  0  0  0  0  0  0  0
    2.4852   -2.3371    0.5141 C   0  0  0  0  0  0  0  0  0  0  0  0
    3.1561   -3.4902    0.5977 C   0  0  0  0  0  0  0  0  0  0  0  0
    2.3051   -4.9648    0.8903 Cl  0  0  0  0  0  0  0  0  0  0  0  0
    4.6325   -3.5687    0.4480 C   0  0  0  0  0  0  0  0  0  0  0  0
    5.2388   -4.6329    0.4923 O   0  0  0  0  0  0  0  0  0  0  0  0
    5.3239   -2.2710    0.2422 C   0  0  0  0  0  0  0  0  0  0  0  0
    4.6548   -1.1192    0.1596 C   0  0  0  0  0  0  0  0  0  0  0  0
    7.0437   -2.2879    0.1073 Cl  0  0  0  0  0  0  0  0  0  0  0  0
    1.4092   -2.3346    0.6315 H   0  0  0  0  0  0  0  0  0  0  0  0
    5.1701   -0.1764    0.0052 H   0  0  0  0  0  0  0  0  0  0  0  0
  1  2  1  0  0  0  0
  2  3  2  0  0  0  0
  3 10  1  0  0  0  0
  3  4  1  0  0  0  0
  4  5  2  0  0  0  0
  4 12  1  0  0  0  0
  5  7  1  0  0  0  0
  5  6  1  0  0  0  0
  7  9  1  0  0  0  0
  7  8  2  0  0  0  0
  9 10  2  0  0  0  0
  9 11  1  0  0  0  0
 10 13  1  0  0  0  0
M  END
$$$$