513938 513937
 OpenBabel01211413223D

 25 26  0  0  0  0  0  0  0  0999 V2000
    4.2024    1.6847    0.0396 O   0  0  0  0  0  0  0  0  0  0  0  0
    3.1361    1.3893   -0.5132 N   0  0  0  0  0  0  0  0  0  0  0  0
    3.1796    1.4164   -1.8838 N   0  0  0  0  0  0  0  0  0  0  0  0
    1.9553    1.7681   -2.5670 C   0  0  0  0  0  0  0  0  0  0  0  0
    1.6153    1.2123   -3.8157 C   0  0  0  0  0  0  0  0  0  0  0  0
    0.4296    1.5653   -4.4693 C   0  0  0  0  0  0  0  0  0  0  0  0
   -0.4485    2.4722   -3.8831 C   0  0  0  0  0  0  0  0  0  0  0  0
   -0.1469    3.0223   -2.6413 C   0  0  0  0  0  0  0  0  0  0  0  0
    1.0394    2.6718   -1.9895 C   0  0  0  0  0  0  0  0  0  0  0  0
    4.3648    1.0028   -2.6024 C   0  0  0  0  0  0  0  0  0  0  0  0
    5.1856   -0.0390   -2.1288 C   0  0  0  0  0  0  0  0  0  0  0  0
    6.3329   -0.4306   -2.8252 C   0  0  0  0  0  0  0  0  0  0  0  0
    6.6830    0.2109   -4.0100 C   0  0  0  0  0  0  0  0  0  0  0  0
    5.8927    1.2492   -4.4955 C   0  0  0  0  0  0  0  0  0  0  0  0
    4.7491    1.6453   -3.7956 C   0  0  0  0  0  0  0  0  0  0  0  0
    2.2608    0.4764   -4.2897 H   0  0  0  0  0  0  0  0  0  0  0  0
    0.1910    1.1244   -5.4341 H   0  0  0  0  0  0  0  0  0  0  0  0
   -1.3701    2.7456   -4.3908 H   0  0  0  0  0  0  0  0  0  0  0  0
   -0.8318    3.7271   -2.1766 H   0  0  0  0  0  0  0  0  0  0  0  0
    1.2512    3.1313   -1.0261 H   0  0  0  0  0  0  0  0  0  0  0  0
    4.9325   -0.5627   -1.2093 H   0  0  0  0  0  0  0  0  0  0  0  0
    6.9527   -1.2351   -2.4375 H   0  0  0  0  0  0  0  0  0  0  0  0
    7.5763   -0.0928   -4.5500 H   0  0  0  0  0  0  0  0  0  0  0  0
    6.1698    1.7595   -5.4147 H   0  0  0  0  0  0  0  0  0  0  0  0
    4.1676    2.4795   -4.1819 H   0  0  0  0  0  0  0  0  0  0  0  0
  1  2  2  0  0  0  0
  2  3  1  0  0  0  0
  3 10  1  0  0  0  0
  3  4  1  0  0  0  0
  4  5  2  0  0  0  0
  4  9  1  0  0  0  0
  5  6  1  0  0  0  0
  5 16  1  0  0  0  0
  6  7  2  0  0  0  0
  6 17  1  0  0  0  0
  7  8  1  0  0  0  0
  7 18  1  0  0  0  0
  8  9  2  0  0  0  0
  8 19  1  0  0  0  0
  9 20  1  0  0  0  0
 10 11  2  0  0  0  0
 10 15  1  0  0  0  0
 11 12  1  0  0  0  0
 11 21  1  0  0  0  0
 12 13  2  0  0  0  0
 12 22  1  0  0  0  0
 13 14  1  0  0  0  0
 13 23  1  0  0  0  0
 14 15  2  0  0  0  0
 14 24  1  0  0  0  0
 15 25  1  0  0  0  0
M  END
$$$$