3696673 3696672
 OpenBabel01211413523D

 38 41  0  0  1  0  0  0  0  0999 V2000
    1.0776   -0.7844    1.7505 Cl  0  0  0  0  0  0  0  0  0  0  0  0
    2.6940   -0.5271    1.2223 C   0  0  0  0  0  0  0  0  0  0  0  0
    3.7519   -1.0816    1.9372 C   0  0  0  0  0  0  0  0  0  0  0  0
    5.0648   -0.8746    1.5075 C   0  0  0  0  0  0  0  0  0  0  0  0
    5.3324   -0.1158    0.3534 C   0  0  0  0  0  0  0  0  0  0  0  0
    4.2502    0.4365   -0.3525 C   0  0  0  0  0  0  0  0  0  0  0  0
    2.9370    0.2337    0.0815 C   0  0  0  0  0  0  0  0  0  0  0  0
    6.7504    0.1001   -0.1547 C   0  0  3  0  0  0  0  0  0  0  0  0
    7.5855    0.8018    0.8901 C   0  0  0  0  0  0  0  0  0  0  0  0
    8.5442    1.8975    0.4884 C   0  0  0  0  0  0  0  0  0  0  0  0
    7.3062    2.2391    1.2670 C   0  0  0  0  0  0  0  0  0  0  0  0
    7.3492   -1.1767   -0.4835 N   0  0  0  0  0  0  0  0  0  0  0  0
    8.3155   -1.3192   -1.4524 C   0  0  0  0  0  0  0  0  0  0  0  0
    8.7675   -0.3931   -2.1128 O   0  0  0  0  0  0  0  0  0  0  0  0
    8.8270   -2.7047   -1.6521 C   0  0  0  0  0  0  0  0  0  0  0  0
   10.1493   -2.8695   -2.0973 C   0  0  0  0  0  0  0  0  0  0  0  0
   10.7033   -4.1409   -2.2982 C   0  0  0  0  0  0  0  0  0  0  0  0
    9.8655   -5.2257   -2.0374 C   0  0  0  0  0  0  0  0  0  0  0  0
    8.5503   -5.0968   -1.6145 C   0  0  0  0  0  0  0  0  0  0  0  0
    8.0042   -3.8211   -1.4223 C   0  0  0  0  0  0  0  0  0  0  0  0
    7.9958   -6.3370   -1.4555 N   0  0  0  0  0  0  0  0  0  0  0  0
    8.9178   -7.2423   -1.7596 N   0  0  0  0  0  0  0  0  0  0  0  0
   10.0318   -6.5806   -2.1122 N   0  0  0  0  0  0  0  0  0  0  0  0
   10.8489   -7.1132   -2.3861 H   0  0  0  0  0  0  0  0  0  0  0  0
    3.5629   -1.6749    2.8274 H   0  0  0  0  0  0  0  0  0  0  0  0
    5.8785   -1.3094    2.0832 H   0  0  0  0  0  0  0  0  0  0  0  0
    4.4230    1.0281   -1.2501 H   0  0  0  0  0  0  0  0  0  0  0  0
    2.1120    0.6690   -0.4768 H   0  0  0  0  0  0  0  0  0  0  0  0
    6.7223    0.7058   -1.0693 H   0  0  0  0  0  0  0  0  0  0  0  0
    7.9033    0.1388    1.6881 H   0  0  0  0  0  0  0  0  0  0  0  0
    8.5890    2.1908   -0.5552 H   0  0  0  0  0  0  0  0  0  0  0  0
    9.4998    1.9493    0.9982 H   0  0  0  0  0  0  0  0  0  0  0  0
    7.4196    2.5182    2.3091 H   0  0  0  0  0  0  0  0  0  0  0  0
    6.5126    2.7694    0.7530 H   0  0  0  0  0  0  0  0  0  0  0  0
    7.1461   -1.9518    0.1297 H   0  0  0  0  0  0  0  0  0  0  0  0
   10.7631   -1.9892   -2.2890 H   0  0  0  0  0  0  0  0  0  0  0  0
   11.7258   -4.2644   -2.6380 H   0  0  0  0  0  0  0  0  0  0  0  0
    6.9656   -3.7296   -1.1272 H   0  0  0  0  0  0  0  0  0  0  0  0
  1  2  1  0  0  0  0
  2  3  2  0  0  0  0
  2  7  1  0  0  0  0
  3  4  1  0  0  0  0
  3 25  1  0  0  0  0
  4  5  2  0  0  0  0
  4 26  1  0  0  0  0
  5  6  1  0  0  0  0
  5  8  1  0  0  0  0
  6  7  2  0  0  0  0
  6 27  1  0  0  0  0
  7 28  1  0  0  0  0
  8 12  1  0  0  0  0
  8  9  1  0  0  0  0
  8 29  1  0  0  0  0
  9 11  1  0  0  0  0
  9 10  1  0  0  0  0
  9 30  1  0  0  0  0
 10 11  1  0  0  0  0
 10 31  1  0  0  0  0
 10 32  1  0  0  0  0
 11 33  1  0  0  0  0
 11 34  1  0  0  0  0
 12 13  1  0  0  0  0
 12 35  1  0  0  0  0
 13 15  1  0  0  0  0
 13 14  2  0  0  0  0
 15 16  2  0  0  0  0
 15 20  1  0  0  0  0
 16 17  1  0  0  0  0
 16 36  1  0  0  0  0
 17 18  2  0  0  0  0
 17 37  1  0  0  0  0
 18 19  1  0  0  0  0
 18 23  1  0  0  0  0
 19 20  2  0  0  0  0
 19 21  1  0  0  0  0
 20 38  1  0  0  0  0
 21 22  2  0  0  0  0
 22 23  1  0  0  0  0
 23 24  1  0  0  0  0
M  END
$$$$