1679116 1679115
 OpenBabel01211413453D

 31 31  0  0  0  0  0  0  0  0999 V2000
    3.5862   -0.4926    2.6704 C   0  0  0  0  0  0  0  0  0  0  0  0
    3.6779   -0.2395    1.2165 C   0  0  0  0  0  0  0  0  0  0  0  0
    4.0400    1.0191    0.8485 O   0  0  0  0  0  0  0  0  0  0  0  0
    4.0874    1.0559   -0.5178 C   0  0  0  0  0  0  0  0  0  0  0  0
    3.7428   -0.1876   -1.0145 C   0  0  0  0  0  0  0  0  0  0  0  0
    3.4765   -1.0337    0.1013 C   0  0  0  0  0  0  0  0  0  0  0  0
    3.0643   -2.4635    0.0637 C   0  0  0  0  0  0  0  0  0  0  0  0
    4.5217   -3.5504    0.0989 S   0  0  0  0  0  0  0  0  0  0  0  0
    3.6671   -5.1506   -0.0320 C   0  0  0  0  0  0  0  0  0  0  0  0
    4.6852   -6.2889   -0.0224 C   0  0  0  0  0  0  0  0  0  0  0  0
    3.9894   -7.6455   -0.1485 C   0  0  0  0  0  0  0  0  0  0  0  0
    4.9913   -8.7891   -0.1368 C   0  0  0  0  0  0  0  0  0  0  0  0
    4.4599    2.2881   -1.1590 C   0  0  0  0  0  0  0  0  0  0  0  0
    4.7601    3.3573   -0.6490 O   0  0  0  0  0  0  0  0  0  0  0  0
    4.4477    2.1689   -2.5090 O   0  0  0  0  0  0  0  0  0  0  0  0
    3.8136    0.4088    3.2479 H   0  0  0  0  0  0  0  0  0  0  0  0
    4.2932   -1.2733    2.9673 H   0  0  0  0  0  0  0  0  0  0  0  0
    2.5769   -0.8206    2.9375 H   0  0  0  0  0  0  0  0  0  0  0  0
    3.6993   -0.4518   -2.0628 H   0  0  0  0  0  0  0  0  0  0  0  0
    2.4936   -2.6602   -0.8502 H   0  0  0  0  0  0  0  0  0  0  0  0
    2.4219   -2.6960    0.9195 H   0  0  0  0  0  0  0  0  0  0  0  0
    3.0896   -5.1690   -0.9620 H   0  0  0  0  0  0  0  0  0  0  0  0
    2.9763   -5.2551    0.8110 H   0  0  0  0  0  0  0  0  0  0  0  0
    5.2660   -6.2670    0.9085 H   0  0  0  0  0  0  0  0  0  0  0  0
    5.3927   -6.1697   -0.8529 H   0  0  0  0  0  0  0  0  0  0  0  0
    3.4127   -7.6826   -1.0801 H   0  0  0  0  0  0  0  0  0  0  0  0
    3.2812   -7.7794    0.6774 H   0  0  0  0  0  0  0  0  0  0  0  0
    5.6973   -8.7008   -0.9688 H   0  0  0  0  0  0  0  0  0  0  0  0
    4.4728   -9.7483   -0.2316 H   0  0  0  0  0  0  0  0  0  0  0  0
    5.5611   -8.8018    0.7979 H   0  0  0  0  0  0  0  0  0  0  0  0
    4.7198    3.0629   -2.8016 H   0  0  0  0  0  0  0  0  0  0  0  0
  1  2  1  0  0  0  0
  1 16  1  0  0  0  0
  1 17  1  0  0  0  0
  1 18  1  0  0  0  0
  2  3  1  0  0  0  0
  2  6  2  0  0  0  0
  3  4  1  0  0  0  0
  4  5  2  0  0  0  0
  4 13  1  0  0  0  0
  5  6  1  0  0  0  0
  5 19  1  0  0  0  0
  6  7  1  0  0  0  0
  7  8  1  0  0  0  0
  7 20  1  0  0  0  0
  7 21  1  0  0  0  0
  8  9  1  0  0  0  0
  9 10  1  0  0  0  0
  9 22  1  0  0  0  0
  9 23  1  0  0  0  0
 10 11  1  0  0  0  0
 10 24  1  0  0  0  0
 10 25  1  0  0  0  0
 11 12  1  0  0  0  0
 11 26  1  0  0  0  0
 11 27  1  0  0  0  0
 12 28  1  0  0  0  0
 12 29  1  0  0  0  0
 12 30  1  0  0  0  0
 13 15  1  0  0  0  0
 13 14  2  0  0  0  0
 15 31  1  0  0  0  0
M  END
$$$$