2312814 2312813
 OpenBabel01211413483D

 23 23  0  0  0  0  0  0  0  0999 V2000
    1.9997   -0.9808    1.7394 N   0  0  0  0  0  0  0  0  0  0  0  0
    3.2797   -1.2558    1.3494 C   0  0  0  0  0  0  0  0  0  0  0  0
    4.4600   -1.5267    2.5006 S   0  0  0  0  0  0  0  0  0  0  0  0
    3.5424   -1.3254   -0.1420 C   0  0  0  0  0  0  0  0  0  0  0  0
    3.7788    0.0445   -0.6646 C   0  0  0  0  0  0  0  0  0  0  0  0
    4.9163    0.8035   -0.8372 C   0  0  0  0  0  0  0  0  0  0  0  0
    4.4911    2.0464   -1.3611 C   0  0  0  0  0  0  0  0  0  0  0  0
    3.1199    1.9695   -1.4906 C   0  0  0  0  0  0  0  0  0  0  0  0
    2.6807    0.7457   -1.0724 O   0  0  0  0  0  0  0  0  0  0  0  0
    2.0785    2.9332   -1.9350 C   0  0  0  0  0  0  0  0  0  0  0  0
    2.2835    3.2953   -3.3916 C   0  0  0  0  0  0  0  0  0  0  0  0
    3.0949    4.6653   -3.8903 S   0  0  0  0  0  0  0  0  0  0  0  0
    1.7390    2.4546   -4.3206 N   0  0  0  0  0  0  0  0  0  0  0  0
    1.3074   -0.6446    1.0794 H   0  0  0  0  0  0  0  0  0  0  0  0
    1.8019   -0.8673    2.7261 H   0  0  0  0  0  0  0  0  0  0  0  0
    2.6724   -1.7700   -0.6382 H   0  0  0  0  0  0  0  0  0  0  0  0
    4.4028   -1.9690   -0.3533 H   0  0  0  0  0  0  0  0  0  0  0  0
    5.9269    0.5023   -0.5960 H   0  0  0  0  0  0  0  0  0  0  0  0
    5.1090    2.8997   -1.6068 H   0  0  0  0  0  0  0  0  0  0  0  0
    2.1073    3.8298   -1.3052 H   0  0  0  0  0  0  0  0  0  0  0  0
    1.0815    2.4889   -1.8198 H   0  0  0  0  0  0  0  0  0  0  0  0
    1.3323    1.5596   -4.0706 H   0  0  0  0  0  0  0  0  0  0  0  0
    1.8834    2.6484   -5.3055 H   0  0  0  0  0  0  0  0  0  0  0  0
  1  2  1  0  0  0  0
  1 14  1  0  0  0  0
  1 15  1  0  0  0  0
  2  4  1  0  0  0  0
  2  3  2  0  0  0  0
  4  5  1  0  0  0  0
  4 16  1  0  0  0  0
  4 17  1  0  0  0  0
  5  6  2  0  0  0  0
  5  9  1  0  0  0  0
  6  7  1  0  0  0  0
  6 18  1  0  0  0  0
  7  8  2  0  0  0  0
  7 19  1  0  0  0  0
  8  9  1  0  0  0  0
  8 10  1  0  0  0  0
 10 11  1  0  0  0  0
 10 20  1  0  0  0  0
 10 21  1  0  0  0  0
 11 13  1  0  0  0  0
 11 12  2  0  0  0  0
 13 22  1  0  0  0  0
 13 23  1  0  0  0  0
M  END
$$$$