675650 675649
 OpenBabel01211413323D

 26 29  0  0  1  0  0  0  0  0999 V2000
    2.8099    2.2062   -2.4862 Cl  0  0  0  0  0  0  0  0  0  0  0  0
    3.1031    3.9591   -2.5880 C   0  0  0  0  0  0  0  0  0  0  0  0
    3.1900    4.4011   -4.2948 Cl  0  0  0  0  0  0  0  0  0  0  0  0
    2.4652    4.9111   -1.5674 C   0  0  3  0  0  0  0  0  0  0  0  0
    4.0113    4.6202   -1.5467 C   0  0  3  0  0  0  0  0  0  0  0  0
    4.5605    3.8095   -0.3755 C   0  0  0  0  0  0  0  0  0  0  0  0
    3.5712    3.2307    0.5921 C   0  0  0  0  0  0  0  0  0  0  0  0
    2.2511    3.4524    0.5466 C   0  0  0  0  0  0  0  0  0  0  0  0
    1.5780    4.3112   -0.4806 C   0  0  0  0  0  0  0  0  0  0  0  0
    4.9560    5.8009   -1.9345 C   0  0  0  0  0  0  0  0  0  0  0  0
    4.2333    7.0195   -1.5112 C   0  0  3  0  0  0  0  0  0  0  0  0
    3.1012    7.1250   -2.5546 C   0  0  3  0  0  0  0  0  0  0  0  0
    1.9846    6.3501   -1.9669 C   0  0  0  0  0  0  0  0  0  0  0  0
    3.8614    8.2248   -2.1251 O   0  0  0  0  0  0  0  0  0  0  0  0
    5.1896    3.0048   -0.7734 H   0  0  0  0  0  0  0  0  0  0  0  0
    5.2225    4.4463    0.2251 H   0  0  0  0  0  0  0  0  0  0  0  0
    3.9724    2.5827    1.3686 H   0  0  0  0  0  0  0  0  0  0  0  0
    1.6074    2.9777    1.2845 H   0  0  0  0  0  0  0  0  0  0  0  0
    0.7741    3.7387   -0.9591 H   0  0  0  0  0  0  0  0  0  0  0  0
    1.0804    5.1161    0.0741 H   0  0  0  0  0  0  0  0  0  0  0  0
    5.9073    5.7313   -1.3960 H   0  0  0  0  0  0  0  0  0  0  0  0
    5.2135    5.7889   -2.9986 H   0  0  0  0  0  0  0  0  0  0  0  0
    4.0338    6.9955   -0.4439 H   0  0  0  0  0  0  0  0  0  0  0  0
    3.2323    6.9176   -3.6060 H   0  0  0  0  0  0  0  0  0  0  0  0
    1.1572    6.2601   -2.6791 H   0  0  0  0  0  0  0  0  0  0  0  0
    1.5985    6.8787   -1.0868 H   0  0  0  0  0  0  0  0  0  0  0  0
  1  2  1  0  0  0  0
  2  4  1  0  0  0  0
  2  3  1  0  0  0  0
  2  5  1  0  0  0  0
  4 13  1  0  0  0  0
  4  9  1  0  0  0  0
  4  5  1  0  0  0  0
  5  6  1  0  0  0  0
  5 10  1  0  0  0  0
  6  7  1  0  0  0  0
  6 15  1  0  0  0  0
  6 16  1  0  0  0  0
  7  8  2  0  0  0  0
  7 17  1  0  0  0  0
  8  9  1  0  0  0  0
  8 18  1  0  0  0  0
  9 19  1  0  0  0  0
  9 20  1  0  0  0  0
 10 11  1  0  0  0  0
 10 21  1  0  0  0  0
 10 22  1  0  0  0  0
 11 12  1  0  0  0  0
 11 14  1  0  0  0  0
 11 23  1  0  0  0  0
 12 13  1  0  0  0  0
 12 14  1  0  0  0  0
 12 24  1  0  0  0  0
 13 25  1  0  0  0  0
 13 26  1  0  0  0  0
M  END
$$$$