543876 543875
 OpenBabel01211413243D

 47 49  0  0  1  0  0  0  0  0999 V2000
    4.7993    4.6147   -1.5707 C   0  0  0  0  0  0  0  0  0  0  0  0
    5.0292    3.1532   -1.9160 C   0  0  0  0  0  0  0  0  0  0  0  0
    5.9661    2.6256   -0.9567 N   0  0  0  0  0  0  0  0  0  0  0  0
    6.3281    1.2255   -1.1260 C   0  0  3  0  0  0  0  0  0  0  0  0
    7.1483    1.0095    0.0523 N   0  0  0  0  0  0  0  0  0  0  0  0
    8.4213    1.0187   -0.1322 C   0  0  0  0  0  0  0  0  0  0  0  0
    9.1679    1.0454    1.0017 N   0  0  0  0  0  0  0  0  0  0  0  0
   10.5298    0.6011    1.1283 C   0  0  0  0  0  0  0  0  0  0  0  0
   10.6057   -0.3972    2.2719 C   0  0  0  0  0  0  0  0  0  0  0  0
    9.0283    1.0115   -1.3480 N   0  0  0  0  0  0  0  0  0  0  0  0
    8.2826    0.8506   -2.3932 C   0  0  0  0  0  0  0  0  0  0  0  0
    6.9131    0.7521   -2.3533 N   0  0  0  0  0  0  0  0  0  0  0  0
    6.2198    0.3573   -3.5074 C   0  0  0  0  0  0  0  0  0  0  0  0
    6.9813    0.1964   -4.6062 C   0  0  0  0  0  0  0  0  0  0  0  0
    8.3354    0.4463   -4.6343 N   0  0  0  0  0  0  0  0  0  0  0  0
    8.9755    0.7538   -3.5922 N   0  0  0  0  0  0  0  0  0  0  0  0
    4.5198   -0.0990   -3.5194 S   0  0  0  0  0  0  0  0  0  0  0  0
    3.8325    0.3211   -5.1384 C   0  0  0  0  0  0  0  0  0  0  0  0
    3.6103    1.7992   -5.3838 C   0  0  0  0  0  0  0  0  0  0  0  0
    4.1322    2.3430   -6.3588 O   0  0  0  0  0  0  0  0  0  0  0  0
    2.7100    2.6165   -4.5052 C   0  0  0  0  0  0  0  0  0  0  0  0
    1.8985    2.0674   -3.5044 C   0  0  0  0  0  0  0  0  0  0  0  0
    1.1930    2.9038   -2.6300 C   0  0  0  0  0  0  0  0  0  0  0  0
    1.2556    4.2890   -2.7783 C   0  0  0  0  0  0  0  0  0  0  0  0
    1.9983    4.8414   -3.8166 C   0  0  0  0  0  0  0  0  0  0  0  0
    2.7265    4.0114   -4.6723 C   0  0  0  0  0  0  0  0  0  0  0  0
    4.2285    5.1127   -2.3550 H   0  0  0  0  0  0  0  0  0  0  0  0
    5.7473    5.1542   -1.4743 H   0  0  0  0  0  0  0  0  0  0  0  0
    4.2474    4.7131   -0.6308 H   0  0  0  0  0  0  0  0  0  0  0  0
    5.4312    3.0904   -2.9311 H   0  0  0  0  0  0  0  0  0  0  0  0
    4.0856    2.6065   -1.8645 H   0  0  0  0  0  0  0  0  0  0  0  0
    5.6114    2.7079   -0.0070 H   0  0  0  0  0  0  0  0  0  0  0  0
    5.4265    0.6328   -0.9384 H   0  0  0  0  0  0  0  0  0  0  0  0
    8.6138    1.0958    1.8453 H   0  0  0  0  0  0  0  0  0  0  0  0
   11.1763    1.4585    1.3412 H   0  0  0  0  0  0  0  0  0  0  0  0
   10.8925    0.1294    0.2095 H   0  0  0  0  0  0  0  0  0  0  0  0
   10.3298    0.0771    3.2214 H   0  0  0  0  0  0  0  0  0  0  0  0
   11.6164   -0.7998    2.3694 H   0  0  0  0  0  0  0  0  0  0  0  0
    9.9127   -1.2307    2.1071 H   0  0  0  0  0  0  0  0  0  0  0  0
    6.5907   -0.1633   -5.5499 H   0  0  0  0  0  0  0  0  0  0  0  0
    2.8687   -0.1861   -5.2543 H   0  0  0  0  0  0  0  0  0  0  0  0
    4.4673   -0.0736   -5.9381 H   0  0  0  0  0  0  0  0  0  0  0  0
    1.8192    0.9956   -3.3525 H   0  0  0  0  0  0  0  0  0  0  0  0
    0.6103    2.4752   -1.8184 H   0  0  0  0  0  0  0  0  0  0  0  0
    0.7327    4.9378   -2.0779 H   0  0  0  0  0  0  0  0  0  0  0  0
    2.0524    5.9219   -3.9348 H   0  0  0  0  0  0  0  0  0  0  0  0
    3.3372    4.4650   -5.4518 H   0  0  0  0  0  0  0  0  0  0  0  0
  1  2  1  0  0  0  0
  1 27  1  0  0  0  0
  1 28  1  0  0  0  0
  1 29  1  0  0  0  0
  2  3  1  0  0  0  0
  2 30  1  0  0  0  0
  2 31  1  0  0  0  0
  3  4  1  0  0  0  0
  3 32  1  0  0  0  0
  4  5  1  0  0  0  0
  4 12  1  0  0  0  0
  4 33  1  0  0  0  0
  5  6  2  0  0  0  0
  6 10  1  0  0  0  0
  6  7  1  0  0  0  0
  7  8  1  0  0  0  0
  7 34  1  0  0  0  0
  8  9  1  0  0  0  0
  8 35  1  0  0  0  0
  8 36  1  0  0  0  0
  9 37  1  0  0  0  0
  9 38  1  0  0  0  0
  9 39  1  0  0  0  0
 10 11  2  0  0  0  0
 11 16  1  0  0  0  0
 11 12  1  0  0  0  0
 12 13  1  0  0  0  0
 13 14  2  0  0  0  0
 13 17  1  0  0  0  0
 14 15  1  0  0  0  0
 14 40  1  0  0  0  0
 15 16  2  0  0  0  0
 17 18  1  0  0  0  0
 18 19  1  0  0  0  0
 18 41  1  0  0  0  0
 18 42  1  0  0  0  0
 19 21  1  0  0  0  0
 19 20  2  0  0  0  0
 21 22  2  0  0  0  0
 21 26  1  0  0  0  0
 22 23  1  0  0  0  0
 22 43  1  0  0  0  0
 23 24  2  0  0  0  0
 23 44  1  0  0  0  0
 24 25  1  0  0  0  0
 24 45  1  0  0  0  0
 25 26  2  0  0  0  0
 25 46  1  0  0  0  0
 26 47  1  0  0  0  0
M  END
$$$$