1262184 1262183
 OpenBabel01211413413D

 31 32  0  0  1  0  0  0  0  0999 V2000
    2.0056   -0.1020   -2.5020 C   0  0  0  0  0  0  0  0  0  0  0  0
    1.6298   -0.8906   -1.4857 C   0  0  0  0  0  0  0  0  0  0  0  0
    2.4094   -2.0092   -0.8262 C   0  0  0  0  0  0  0  0  0  0  0  0
    3.7095   -2.5537   -1.5039 C   0  0  3  0  0  0  0  0  0  0  0  0
    4.4500   -3.3534   -0.4646 C   0  0  0  0  0  0  0  0  0  0  0  0
    5.6247   -3.1354    0.2305 C   0  0  0  0  0  0  0  0  0  0  0  0
    5.8171   -4.2677    1.0585 C   0  0  0  0  0  0  0  0  0  0  0  0
    4.7425   -5.0947    0.8332 C   0  0  0  0  0  0  0  0  0  0  0  0
    3.8935   -4.5377   -0.0686 O   0  0  0  0  0  0  0  0  0  0  0  0
    3.3233   -3.2118   -2.7711 N   0  0  0  0  0  0  0  0  0  0  0  0
    4.2220   -3.8804   -3.6041 C   0  0  0  0  0  0  0  0  0  0  0  0
    4.1436   -3.6797   -4.9920 C   0  0  0  0  0  0  0  0  0  0  0  0
    4.9277   -4.4175   -5.8880 C   0  0  0  0  0  0  0  0  0  0  0  0
    5.8003   -5.3894   -5.4134 C   0  0  0  0  0  0  0  0  0  0  0  0
    5.8927   -5.6106   -4.0456 C   0  0  0  0  0  0  0  0  0  0  0  0
    5.1123   -4.8606   -3.1569 C   0  0  0  0  0  0  0  0  0  0  0  0
    1.3340    0.6701   -2.8689 H   0  0  0  0  0  0  0  0  0  0  0  0
    2.9750   -0.1804   -2.9879 H   0  0  0  0  0  0  0  0  0  0  0  0
    0.6418   -0.7220   -1.0561 H   0  0  0  0  0  0  0  0  0  0  0  0
    1.7117   -2.8505   -0.7066 H   0  0  0  0  0  0  0  0  0  0  0  0
    2.6407   -1.6622    0.1902 H   0  0  0  0  0  0  0  0  0  0  0  0
    4.3488   -1.6938   -1.7567 H   0  0  0  0  0  0  0  0  0  0  0  0
    6.2684   -2.2710    0.1378 H   0  0  0  0  0  0  0  0  0  0  0  0
    6.6398   -4.4621    1.7313 H   0  0  0  0  0  0  0  0  0  0  0  0
    4.4492   -6.0654    1.2083 H   0  0  0  0  0  0  0  0  0  0  0  0
    2.7360   -2.5797   -3.3087 H   0  0  0  0  0  0  0  0  0  0  0  0
    3.4514   -2.9482   -5.3999 H   0  0  0  0  0  0  0  0  0  0  0  0
    4.8368   -4.2457   -6.9570 H   0  0  0  0  0  0  0  0  0  0  0  0
    6.3876   -5.9875   -6.1032 H   0  0  0  0  0  0  0  0  0  0  0  0
    6.5464   -6.3874   -3.6585 H   0  0  0  0  0  0  0  0  0  0  0  0
    5.1738   -5.1265   -2.1097 H   0  0  0  0  0  0  0  0  0  0  0  0
  1  2  2  0  0  0  0
  1 17  1  0  0  0  0
  1 18  1  0  0  0  0
  2  3  1  0  0  0  0
  2 19  1  0  0  0  0
  3  4  1  0  0  0  0
  3 20  1  0  0  0  0
  3 21  1  0  0  0  0
  4 10  1  0  0  0  0
  4  5  1  0  0  0  0
  4 22  1  0  0  0  0
  5  6  2  0  0  0  0
  5  9  1  0  0  0  0
  6  7  1  0  0  0  0
  6 23  1  0  0  0  0
  7  8  2  0  0  0  0
  7 24  1  0  0  0  0
  8  9  1  0  0  0  0
  8 25  1  0  0  0  0
 10 11  1  0  0  0  0
 10 26  1  0  0  0  0
 11 12  2  0  0  0  0
 11 16  1  0  0  0  0
 12 13  1  0  0  0  0
 12 27  1  0  0  0  0
 13 14  2  0  0  0  0
 13 28  1  0  0  0  0
 14 15  1  0  0  0  0
 14 29  1  0  0  0  0
 15 16  2  0  0  0  0
 15 30  1  0  0  0  0
 16 31  1  0  0  0  0
M  END
$$$$