27515121 27515120
 OpenBabel01211414063D

 27 27  0  0  0  0  0  0  0  0999 V2000
    1.4324   -1.3484    1.4154 Cl  0  0  0  0  0  0  0  0  0  0  0  0
    2.9857   -0.9950    0.7667 C   0  0  0  0  0  0  0  0  0  0  0  0
    4.0758   -1.7972    1.1025 C   0  0  0  0  0  0  0  0  0  0  0  0
    5.3364   -1.5087    0.5754 C   0  0  0  0  0  0  0  0  0  0  0  0
    5.4994   -0.4182   -0.2848 C   0  0  0  0  0  0  0  0  0  0  0  0
    4.4056    0.3856   -0.6204 C   0  0  0  0  0  0  0  0  0  0  0  0
    3.1451    0.0942   -0.0918 C   0  0  0  0  0  0  0  0  0  0  0  0
    6.8292   -0.0909   -0.8455 C   0  0  0  0  0  0  0  0  0  0  0  0
    7.8694   -0.8064   -0.5690 N   0  0  0  0  0  0  0  0  0  0  0  0
    9.3946   -0.3218   -1.2630 Si  0  0  0  0  0  0  0  0  0  0  0  0
    9.7628    1.3761   -0.6248 C   0  0  0  0  0  0  0  0  0  0  0  0
   10.6286   -1.5670   -0.6625 C   0  0  0  0  0  0  0  0  0  0  0  0
    9.2115   -0.3718   -3.1029 C   0  0  0  0  0  0  0  0  0  0  0  0
    3.9536   -2.6449    1.7717 H   0  0  0  0  0  0  0  0  0  0  0  0
    6.1899   -2.1318    0.8368 H   0  0  0  0  0  0  0  0  0  0  0  0
    4.5209    1.2361   -1.2865 H   0  0  0  0  0  0  0  0  0  0  0  0
    2.2931    0.7180   -0.3508 H   0  0  0  0  0  0  0  0  0  0  0  0
    6.8640    0.7984   -1.5043 H   0  0  0  0  0  0  0  0  0  0  0  0
    9.0125    2.1010   -0.9543 H   0  0  0  0  0  0  0  0  0  0  0  0
   10.7372    1.7249   -0.9797 H   0  0  0  0  0  0  0  0  0  0  0  0
    9.7827    1.3907    0.4692 H   0  0  0  0  0  0  0  0  0  0  0  0
   10.3594   -2.5775   -0.9851 H   0  0  0  0  0  0  0  0  0  0  0  0
   10.6891   -1.5695    0.4301 H   0  0  0  0  0  0  0  0  0  0  0  0
   11.6275   -1.3478   -1.0517 H   0  0  0  0  0  0  0  0  0  0  0  0
    8.9272   -1.3715   -3.4456 H   0  0  0  0  0  0  0  0  0  0  0  0
   10.1527   -0.1082   -3.5953 H   0  0  0  0  0  0  0  0  0  0  0  0
    8.4490    0.3307   -3.4529 H   0  0  0  0  0  0  0  0  0  0  0  0
  1  2  1  0  0  0  0
  2  3  2  0  0  0  0
  2  7  1  0  0  0  0
  3  4  1  0  0  0  0
  3 14  1  0  0  0  0
  4  5  2  0  0  0  0
  4 15  1  0  0  0  0
  5  6  1  0  0  0  0
  5  8  1  0  0  0  0
  6  7  2  0  0  0  0
  6 16  1  0  0  0  0
  7 17  1  0  0  0  0
  8  9  2  3  0  0  0
  8 18  1  0  0  0  0
  9 10  1  0  0  0  0
 10 13  1  0  0  0  0
 10 12  1  0  0  0  0
 10 11  1  0  0  0  0
 11 19  1  0  0  0  0
 11 20  1  0  0  0  0
 11 21  1  0  0  0  0
 12 22  1  0  0  0  0
 12 23  1  0  0  0  0
 12 24  1  0  0  0  0
 13 25  1  0  0  0  0
 13 26  1  0  0  0  0
 13 27  1  0  0  0  0
M  END
$$$$