500073 500072
 OpenBabel01211413193D

 26 27  0  0  0  0  0  0  0  0999 V2000
    0.6165   -1.3148   -0.2822 C   0  0  0  0  0  0  0  0  0  0  0  0
    2.0593   -0.8279   -0.2010 C   0  0  0  0  0  0  0  0  0  0  0  0
    2.6653   -0.7050   -1.6021 C   0  0  0  0  0  0  0  0  0  0  0  0
    2.9102   -1.7025    0.7115 C   0  0  0  0  0  0  0  0  0  0  0  0
    3.7157   -0.7740    1.4270 O   0  0  0  0  0  0  0  0  0  0  0  0
    3.0755    0.4116    1.2792 C   0  0  0  0  0  0  0  0  0  0  0  0
    2.0942    0.5036    0.4358 N   0  0  0  0  0  0  0  0  0  0  0  0
    3.5879    1.4983    2.1327 C   0  0  0  0  0  0  0  0  0  0  0  0
    4.6490    1.2924    3.0230 C   0  0  0  0  0  0  0  0  0  0  0  0
    5.1095    2.3445    3.8183 C   0  0  0  0  0  0  0  0  0  0  0  0
    4.5134    3.6027    3.7268 C   0  0  0  0  0  0  0  0  0  0  0  0
    3.4570    3.8126    2.8417 C   0  0  0  0  0  0  0  0  0  0  0  0
    2.9939    2.7636    2.0456 C   0  0  0  0  0  0  0  0  0  0  0  0
    0.1533   -1.3487    0.7106 H   0  0  0  0  0  0  0  0  0  0  0  0
    0.5615   -2.3188   -0.7166 H   0  0  0  0  0  0  0  0  0  0  0  0
    0.0075   -0.6430   -0.8976 H   0  0  0  0  0  0  0  0  0  0  0  0
    3.6966   -0.3360   -1.5611 H   0  0  0  0  0  0  0  0  0  0  0  0
    2.0941    0.0000   -2.2168 H   0  0  0  0  0  0  0  0  0  0  0  0
    2.6737   -1.6730   -2.1147 H   0  0  0  0  0  0  0  0  0  0  0  0
    3.5497   -2.4017    0.1636 H   0  0  0  0  0  0  0  0  0  0  0  0
    2.3187   -2.2694    1.4392 H   0  0  0  0  0  0  0  0  0  0  0  0
    5.1246    0.3186    3.1061 H   0  0  0  0  0  0  0  0  0  0  0  0
    5.9332    2.1823    4.5088 H   0  0  0  0  0  0  0  0  0  0  0  0
    4.8737    4.4202    4.3467 H   0  0  0  0  0  0  0  0  0  0  0  0
    2.9928    4.7933    2.7702 H   0  0  0  0  0  0  0  0  0  0  0  0
    2.1690    2.9361    1.3573 H   0  0  0  0  0  0  0  0  0  0  0  0
  1  2  1  0  0  0  0
  1 14  1  0  0  0  0
  1 15  1  0  0  0  0
  1 16  1  0  0  0  0
  2  4  1  0  0  0  0
  2  7  1  0  0  0  0
  2  3  1  0  0  0  0
  3 17  1  0  0  0  0
  3 18  1  0  0  0  0
  3 19  1  0  0  0  0
  4  5  1  0  0  0  0
  4 20  1  0  0  0  0
  4 21  1  0  0  0  0
  5  6  1  0  0  0  0
  6  7  2  0  0  0  0
  6  8  1  0  0  0  0
  8  9  2  0  0  0  0
  8 13  1  0  0  0  0
  9 10  1  0  0  0  0
  9 22  1  0  0  0  0
 10 11  2  0  0  0  0
 10 23  1  0  0  0  0
 11 12  1  0  0  0  0
 11 24  1  0  0  0  0
 12 13  2  0  0  0  0
 12 25  1  0  0  0  0
 13 26  1  0  0  0  0
M  END
$$$$