494071 494070
 OpenBabel01211413193D

 14 13  0  0  0  0  0  0  0  0999 V2000
    1.5222    0.4110    0.4248 C   0  0  0  0  0  0  0  0  0  0  0  0
    3.3193    0.2034    0.4617 S   0  0  0  0  0  0  0  0  0  0  0  0
    3.6936    0.8072   -1.2164 C   0  0  0  0  0  0  0  0  0  0  0  0
    5.1927    0.7417   -1.4630 C   0  0  0  0  0  0  0  0  0  0  0  0
    5.5426    1.2323   -2.8439 C   0  0  0  0  0  0  0  0  0  0  0  0
    4.7243    1.6256   -3.6693 O   0  0  0  0  0  0  0  0  0  0  0  0
    1.1027    0.0865    1.3807 H   0  0  0  0  0  0  0  0  0  0  0  0
    1.0850   -0.1973   -0.3712 H   0  0  0  0  0  0  0  0  0  0  0  0
    1.2637    1.4618    0.2705 H   0  0  0  0  0  0  0  0  0  0  0  0
    3.3351    1.8377   -1.3124 H   0  0  0  0  0  0  0  0  0  0  0  0
    3.1585    0.1887   -1.9450 H   0  0  0  0  0  0  0  0  0  0  0  0
    5.5632   -0.2862   -1.3804 H   0  0  0  0  0  0  0  0  0  0  0  0
    5.7387    1.3678   -0.7484 H   0  0  0  0  0  0  0  0  0  0  0  0
    6.6191    1.2176   -3.0861 H   0  0  0  0  0  0  0  0  0  0  0  0
  1  2  1  0  0  0  0
  1  7  1  0  0  0  0
  1  8  1  0  0  0  0
  1  9  1  0  0  0  0
  2  3  1  0  0  0  0
  3  4  1  0  0  0  0
  3 10  1  0  0  0  0
  3 11  1  0  0  0  0
  4  5  1  0  0  0  0
  4 12  1  0  0  0  0
  4 13  1  0  0  0  0
  5  6  2  0  0  0  0
  5 14  1  0  0  0  0
M  END
$$$$