665877 665876
 OpenBabel01211413313D

 21 21  0  0  1  0  0  0  0  0999 V2000
    1.6775   -0.5010    1.2367 O   0  0  0  0  0  0  0  0  0  0  0  0
    1.7614    0.7173    1.1831 C   0  0  0  0  0  0  0  0  0  0  0  0
    2.8368    1.4464    1.6012 N   0  0  0  0  0  0  0  0  0  0  0  0
    4.0405    0.8343    2.1575 C   0  0  3  0  0  0  0  0  0  0  0  0
    5.2049    0.5574    1.1295 C   0  0  0  0  0  0  0  0  0  0  0  0
    5.7955    2.0445    0.3036 Cl  0  0  0  0  0  0  0  0  0  0  0  0
    6.6236   -0.2174    1.9333 Cl  0  0  0  0  0  0  0  0  0  0  0  0
    4.6754   -0.5698   -0.1786 Cl  0  0  0  0  0  0  0  0  0  0  0  0
    4.4887    1.7539    3.6922 S   0  0  0  0  0  0  0  0  0  0  0  0
    4.7440    3.3545    3.1012 C   0  0  0  0  0  0  0  0  0  0  0  0
    3.9838    3.9052    2.2122 N   0  0  0  0  0  0  0  0  0  0  0  0
    4.5289    5.2495    1.9059 C   0  0  0  0  0  0  0  0  0  0  0  0
    5.3009    5.7836    3.1024 C   0  0  0  0  0  0  0  0  0  0  0  0
    6.0351    4.2895    3.7879 S   0  0  0  0  0  0  0  0  0  0  0  0
    0.9529    1.3549    0.7892 H   0  0  0  0  0  0  0  0  0  0  0  0
    2.8206    2.4627    1.5243 H   0  0  0  0  0  0  0  0  0  0  0  0
    3.7406   -0.1492    2.5414 H   0  0  0  0  0  0  0  0  0  0  0  0
    5.1741    5.1787    1.0210 H   0  0  0  0  0  0  0  0  0  0  0  0
    3.7078    5.9283    1.6527 H   0  0  0  0  0  0  0  0  0  0  0  0
    4.6213    6.2208    3.8406 H   0  0  0  0  0  0  0  0  0  0  0  0
    6.0522    6.5247    2.8186 H   0  0  0  0  0  0  0  0  0  0  0  0
  1  2  2  0  0  0  0
  2  3  1  0  0  0  0
  2 15  1  0  0  0  0
  3  4  1  0  0  0  0
  3 16  1  0  0  0  0
  4  9  1  0  0  0  0
  4  5  1  0  0  0  0
  4 17  1  0  0  0  0
  5  8  1  0  0  0  0
  5  7  1  0  0  0  0
  5  6  1  0  0  0  0
  9 10  1  0  0  0  0
 10 11  2  0  0  0  0
 10 14  1  0  0  0  0
 11 12  1  0  0  0  0
 12 13  1  0  0  0  0
 12 18  1  0  0  0  0
 12 19  1  0  0  0  0
 13 14  1  0  0  0  0
 13 20  1  0  0  0  0
 13 21  1  0  0  0  0
M  END
$$$$