30404486 30404485
 OpenBabel01211414063D

 26 27  0  0  1  0  0  0  0  0999 V2000
    3.1436    1.3317    2.7202 C   0  0  0  0  0  0  0  0  0  0  0  0
    3.0051    0.4922    1.4767 C   0  0  0  0  0  0  0  0  0  0  0  0
    2.4181   -0.5911    1.5096 O   0  0  0  0  0  0  0  0  0  0  0  0
    3.6430    0.9963    0.2042 C   0  0  0  0  0  0  0  0  0  0  0  0
    5.1488    0.7864    0.1768 C   0  0  3  0  0  0  0  0  0  0  0  0
    5.7922    1.4495    1.2563 O   0  0  0  0  0  0  0  0  0  0  0  0
    5.7027    1.2927   -1.1660 C   0  0  0  0  0  0  0  0  0  0  0  0
    6.3472    0.4471   -1.9058 N   0  0  0  0  0  0  0  0  0  0  0  0
    6.3080   -0.7542   -1.1756 C   0  0  0  0  0  0  0  0  0  0  0  0
    5.6290   -0.6337    0.0484 C   0  0  0  0  0  0  0  0  0  0  0  0
    5.5106   -1.7106    0.9113 C   0  0  0  0  0  0  0  0  0  0  0  0
    6.0754   -2.9282    0.5233 C   0  0  0  0  0  0  0  0  0  0  0  0
    6.7498   -3.0510   -0.7030 C   0  0  0  0  0  0  0  0  0  0  0  0
    6.8710   -1.9558   -1.5619 C   0  0  0  0  0  0  0  0  0  0  0  0
    5.5519    2.5603   -1.5321 O   0  0  0  0  0  0  0  0  0  0  0  0
    3.1263    2.3939    2.4632 H   0  0  0  0  0  0  0  0  0  0  0  0
    4.0759    1.0850    3.2325 H   0  0  0  0  0  0  0  0  0  0  0  0
    2.2999    1.1318    3.3870 H   0  0  0  0  0  0  0  0  0  0  0  0
    3.3939    2.0615    0.1193 H   0  0  0  0  0  0  0  0  0  0  0  0
    3.1537    0.4977   -0.6424 H   0  0  0  0  0  0  0  0  0  0  0  0
    6.7096    1.1215    1.2871 H   0  0  0  0  0  0  0  0  0  0  0  0
    4.9881   -1.6275    1.8595 H   0  0  0  0  0  0  0  0  0  0  0  0
    5.9879   -3.7943    1.1764 H   0  0  0  0  0  0  0  0  0  0  0  0
    7.1802   -4.0087   -0.9868 H   0  0  0  0  0  0  0  0  0  0  0  0
    7.3924   -2.0419   -2.5089 H   0  0  0  0  0  0  0  0  0  0  0  0
    5.9966    2.6750   -2.3894 H   0  0  0  0  0  0  0  0  0  0  0  0
  1  2  1  0  0  0  0
  1 16  1  0  0  0  0
  1 17  1  0  0  0  0
  1 18  1  0  0  0  0
  2  4  1  0  0  0  0
  2  3  2  0  0  0  0
  4  5  1  0  0  0  0
  4 19  1  0  0  0  0
  4 20  1  0  0  0  0
  5  7  1  0  0  0  0
  5 10  1  0  0  0  0
  5  6  1  0  0  0  0
  6 21  1  0  0  0  0
  7  8  2  0  0  0  0
  7 15  1  0  0  0  0
  8  9  1  0  0  0  0
  9 14  1  0  0  0  0
  9 10  2  0  0  0  0
 10 11  1  0  0  0  0
 11 12  2  0  0  0  0
 11 22  1  0  0  0  0
 12 13  1  0  0  0  0
 12 23  1  0  0  0  0
 13 14  2  0  0  0  0
 13 24  1  0  0  0  0
 14 25  1  0  0  0  0
 15 26  1  0  0  0  0
M  END
$$$$