853890 853889
 OpenBabel01211413343D

 31 32  0  0  0  0  0  0  0  0999 V2000
    7.2663    3.9989    0.3535 O   0  0  0  0  0  0  0  0  0  0  0  0
    6.8173    2.8710    0.1960 C   0  0  0  0  0  0  0  0  0  0  0  0
    6.1286    2.4672   -1.0467 C   0  0  0  0  0  0  0  0  0  0  0  0
    5.6480    1.1617   -1.1679 C   0  0  0  0  0  0  0  0  0  0  0  0
    4.9941    0.7756   -2.3406 C   0  0  0  0  0  0  0  0  0  0  0  0
    4.8274    1.6827   -3.3949 C   0  0  0  0  0  0  0  0  0  0  0  0
    5.3014    2.9909   -3.2586 C   0  0  0  0  0  0  0  0  0  0  0  0
    5.9558    3.3834   -2.0871 C   0  0  0  0  0  0  0  0  0  0  0  0
    3.9808    1.1368   -4.8641 S   0  0  0  0  0  0  0  0  0  0  0  0
    5.2644    1.4274   -6.1607 C   0  0  0  0  0  0  0  0  0  0  0  0
    6.5696    0.6601   -5.9004 C   0  0  0  0  0  0  0  0  0  0  0  0
    6.4243   -0.8525   -6.0622 C   0  0  0  0  0  0  0  0  0  0  0  0
    5.8577   -1.2141   -7.4318 C   0  0  0  0  0  0  0  0  0  0  0  0
    4.5542   -0.4782   -7.7288 C   0  0  0  0  0  0  0  0  0  0  0  0
    4.6914    1.0342   -7.5334 C   0  0  0  0  0  0  0  0  0  0  0  0
    6.9087    2.1017    0.9807 H   0  0  0  0  0  0  0  0  0  0  0  0
    5.7710    0.4395   -0.3654 H   0  0  0  0  0  0  0  0  0  0  0  0
    4.6186   -0.2422   -2.4300 H   0  0  0  0  0  0  0  0  0  0  0  0
    5.1595    3.7189   -4.0529 H   0  0  0  0  0  0  0  0  0  0  0  0
    6.3231    4.4028   -1.9873 H   0  0  0  0  0  0  0  0  0  0  0  0
    5.4752    2.5026   -6.1735 H   0  0  0  0  0  0  0  0  0  0  0  0
    6.9809    0.8886   -4.9108 H   0  0  0  0  0  0  0  0  0  0  0  0
    7.3224    1.0111   -6.6193 H   0  0  0  0  0  0  0  0  0  0  0  0
    7.4044   -1.3272   -5.9371 H   0  0  0  0  0  0  0  0  0  0  0  0
    5.7783   -1.2579   -5.2757 H   0  0  0  0  0  0  0  0  0  0  0  0
    6.5964   -0.9668   -8.2046 H   0  0  0  0  0  0  0  0  0  0  0  0
    5.6919   -2.2960   -7.4872 H   0  0  0  0  0  0  0  0  0  0  0  0
    4.2485   -0.6850   -8.7609 H   0  0  0  0  0  0  0  0  0  0  0  0
    3.7588   -0.8713   -7.0855 H   0  0  0  0  0  0  0  0  0  0  0  0
    5.3658    1.4186   -8.3107 H   0  0  0  0  0  0  0  0  0  0  0  0
    3.7235    1.5203   -7.7082 H   0  0  0  0  0  0  0  0  0  0  0  0
  1  2  2  0  0  0  0
  2  3  1  0  0  0  0
  2 16  1  0  0  0  0
  3  4  2  0  0  0  0
  3  8  1  0  0  0  0
  4  5  1  0  0  0  0
  4 17  1  0  0  0  0
  5  6  2  0  0  0  0
  5 18  1  0  0  0  0
  6  7  1  0  0  0  0
  6  9  1  0  0  0  0
  7  8  2  0  0  0  0
  7 19  1  0  0  0  0
  8 20  1  0  0  0  0
  9 10  1  0  0  0  0
 10 15  1  0  0  0  0
 10 11  1  0  0  0  0
 10 21  1  0  0  0  0
 11 12  1  0  0  0  0
 11 22  1  0  0  0  0
 11 23  1  0  0  0  0
 12 13  1  0  0  0  0
 12 24  1  0  0  0  0
 12 25  1  0  0  0  0
 13 14  1  0  0  0  0
 13 26  1  0  0  0  0
 13 27  1  0  0  0  0
 14 15  1  0  0  0  0
 14 28  1  0  0  0  0
 14 29  1  0  0  0  0
 15 30  1  0  0  0  0
 15 31  1  0  0  0  0
M  END
$$$$