16020902 16020901
 OpenBabel01211414003D

 59 63  0  0  0  0  0  0  0  0999 V2000
    2.0420    0.4479   -0.0791 O   0  0  0  0  0  0  0  0  0  0  0  0
    2.2814   -0.7527   -0.1500 C   0  0  0  0  0  0  0  0  0  0  0  0
    2.8793   -1.3171   -1.3921 C   0  0  0  0  0  0  0  0  0  0  0  0
    2.6014   -2.6173   -1.8123 C   0  0  0  0  0  0  0  0  0  0  0  0
    3.1766   -3.0989   -2.9868 C   0  0  0  0  0  0  0  0  0  0  0  0
    4.0325   -2.2925   -3.7579 C   0  0  0  0  0  0  0  0  0  0  0  0
    4.3095   -0.9693   -3.3561 C   0  0  0  0  0  0  0  0  0  0  0  0
    3.7133   -0.4984   -2.1704 C   0  0  0  0  0  0  0  0  0  0  0  0
    5.1291   -0.0835   -4.1329 N   0  0  0  0  0  0  0  0  0  0  0  0
    4.6638    1.2984   -4.3578 C   0  0  0  0  0  0  0  0  0  0  0  0
    3.8349    1.4427   -5.6142 C   0  0  0  0  0  0  0  0  0  0  0  0
    2.5979    0.7937   -5.7547 C   0  0  0  0  0  0  0  0  0  0  0  0
    1.8385    0.9518   -6.9176 C   0  0  0  0  0  0  0  0  0  0  0  0
    2.2983    1.7673   -7.9504 C   0  0  0  0  0  0  0  0  0  0  0  0
    3.5163    2.4295   -7.8175 C   0  0  0  0  0  0  0  0  0  0  0  0
    4.2694    2.2670   -6.6571 C   0  0  0  0  0  0  0  0  0  0  0  0
    5.4210    2.9439   -6.5458 F   0  0  0  0  0  0  0  0  0  0  0  0
    6.3383   -0.4326   -4.7580 C   0  0  0  0  0  0  0  0  0  0  0  0
    6.9673    0.3312   -5.4899 O   0  0  0  0  0  0  0  0  0  0  0  0
    6.9895   -1.7275   -4.4658 C   0  0  0  0  0  0  0  0  0  0  0  0
    6.3476   -2.9452   -4.6918 C   0  0  0  0  0  0  0  0  0  0  0  0
    4.6637   -2.9595   -5.3217 S   0  0  3  0  0  0  0  0  0  0  0  0
    4.2466   -4.4023   -5.3536 O   0  0  0  0  0  0  0  0  0  0  0  0
    7.0361   -4.1406   -4.4421 C   0  0  0  0  0  0  0  0  0  0  0  0
    8.3545   -4.1150   -3.9814 C   0  0  0  0  0  0  0  0  0  0  0  0
    9.0000   -2.8968   -3.7805 C   0  0  0  0  0  0  0  0  0  0  0  0
    8.3226   -1.7035   -4.0294 C   0  0  0  0  0  0  0  0  0  0  0  0
    2.0415   -1.6467    0.8692 N   0  0  0  0  0  0  0  0  0  0  0  0
    1.3495   -1.2711    2.0898 C   0  0  0  0  0  0  0  0  0  0  0  0
   -0.1749   -1.3683    1.9645 C   0  0  0  0  0  0  0  0  0  0  0  0
   -0.6610   -2.7745    1.6913 C   0  0  0  0  0  0  0  0  0  0  0  0
   -0.8871   -3.6723    2.7434 C   0  0  0  0  0  0  0  0  0  0  0  0
   -1.3306   -4.9704    2.4817 C   0  0  0  0  0  0  0  0  0  0  0  0
   -1.5438   -5.3855    1.1682 C   0  0  0  0  0  0  0  0  0  0  0  0
   -1.3167   -4.5028    0.1145 C   0  0  0  0  0  0  0  0  0  0  0  0
   -0.8799   -3.2032    0.3743 C   0  0  0  0  0  0  0  0  0  0  0  0
    1.9199   -3.2611   -1.2632 H   0  0  0  0  0  0  0  0  0  0  0  0
    2.9374   -4.1115   -3.3106 H   0  0  0  0  0  0  0  0  0  0  0  0
    3.9224    0.5035   -1.8003 H   0  0  0  0  0  0  0  0  0  0  0  0
    5.5422    1.9543   -4.4039 H   0  0  0  0  0  0  0  0  0  0  0  0
    4.0758    1.6744   -3.5159 H   0  0  0  0  0  0  0  0  0  0  0  0
    2.2068    0.1672   -4.9572 H   0  0  0  0  0  0  0  0  0  0  0  0
    0.8827    0.4419   -7.0143 H   0  0  0  0  0  0  0  0  0  0  0  0
    1.7053    1.8928   -8.8526 H   0  0  0  0  0  0  0  0  0  0  0  0
    3.8847    3.0772   -8.6068 H   0  0  0  0  0  0  0  0  0  0  0  0
    6.5509   -5.1005   -4.6107 H   0  0  0  0  0  0  0  0  0  0  0  0
    8.8816   -5.0478   -3.7934 H   0  0  0  0  0  0  0  0  0  0  0  0
   10.0336   -2.8756   -3.4427 H   0  0  0  0  0  0  0  0  0  0  0  0
    8.8357   -0.7528   -3.8956 H   0  0  0  0  0  0  0  0  0  0  0  0
    2.2723   -2.6248    0.7609 H   0  0  0  0  0  0  0  0  0  0  0  0
    1.6278   -0.2443    2.3508 H   0  0  0  0  0  0  0  0  0  0  0  0
    1.7184   -1.9326    2.8814 H   0  0  0  0  0  0  0  0  0  0  0  0
   -0.5337   -0.6992    1.1724 H   0  0  0  0  0  0  0  0  0  0  0  0
   -0.6356   -1.0099    2.8938 H   0  0  0  0  0  0  0  0  0  0  0  0
   -0.7307   -3.3645    3.7748 H   0  0  0  0  0  0  0  0  0  0  0  0
   -1.5162   -5.6575    3.3036 H   0  0  0  0  0  0  0  0  0  0  0  0
   -1.8942   -6.3947    0.9667 H   0  0  0  0  0  0  0  0  0  0  0  0
   -1.4893   -4.8240   -0.9095 H   0  0  0  0  0  0  0  0  0  0  0  0
   -0.7169   -2.5202   -0.4567 H   0  0  0  0  0  0  0  0  0  0  0  0
  1  2  2  0  0  0  0
  2 28  1  0  0  0  0
  2  3  1  0  0  0  0
  3  4  2  0  0  0  0
  3  8  1  0  0  0  0
  4  5  1  0  0  0  0
  4 37  1  0  0  0  0
  5  6  2  0  0  0  0
  5 38  1  0  0  0  0
  6  7  1  0  0  0  0
  6 22  1  0  0  0  0
  7  8  2  0  0  0  0
  7  9  1  0  0  0  0
  8 39  1  0  0  0  0
  9 18  1  0  0  0  0
  9 10  1  0  0  0  0
 10 11  1  0  0  0  0
 10 40  1  0  0  0  0
 10 41  1  0  0  0  0
 11 12  2  0  0  0  0
 11 16  1  0  0  0  0
 12 13  1  0  0  0  0
 12 42  1  0  0  0  0
 13 14  2  0  0  0  0
 13 43  1  0  0  0  0
 14 15  1  0  0  0  0
 14 44  1  0  0  0  0
 15 16  2  0  0  0  0
 15 45  1  0  0  0  0
 16 17  1  0  0  0  0
 18 20  1  0  0  0  0
 18 19  2  0  0  0  0
 20 27  1  0  0  0  0
 20 21  2  0  0  0  0
 21 24  1  0  0  0  0
 21 22  1  0  0  0  0
 22 23  2  0  0  0  0
 24 25  2  0  0  0  0
 24 46  1  0  0  0  0
 25 26  1  0  0  0  0
 25 47  1  0  0  0  0
 26 27  2  0  0  0  0
 26 48  1  0  0  0  0
 27 49  1  0  0  0  0
 28 29  1  0  0  0  0
 28 50  1  0  0  0  0
 29 30  1  0  0  0  0
 29 51  1  0  0  0  0
 29 52  1  0  0  0  0
 30 31  1  0  0  0  0
 30 53  1  0  0  0  0
 30 54  1  0  0  0  0
 31 32  2  0  0  0  0
 31 36  1  0  0  0  0
 32 33  1  0  0  0  0
 32 55  1  0  0  0  0
 33 34  2  0  0  0  0
 33 56  1  0  0  0  0
 34 35  1  0  0  0  0
 34 57  1  0  0  0  0
 35 36  2  0  0  0  0
 35 58  1  0  0  0  0
 36 59  1  0  0  0  0
M  END
$$$$