910542 910541
 OpenBabel01211413343D

 22 21  0  0  0  0  0  0  0  0999 V2000
    3.8677   -3.0455    3.8627 O   0  0  0  0  0  0  0  0  0  0  0  0
    3.9686   -2.5997    2.7221 C   0  0  0  0  0  0  0  0  0  0  0  0
    2.9586   -2.8207    1.6254 C   0  0  0  0  0  0  0  0  0  0  0  0
    2.1252   -1.5657    1.4276 C   0  0  0  0  0  0  0  0  0  0  0  0
    1.2842   -1.1254    2.6170 C   0  0  0  0  0  0  0  0  0  0  0  0
    0.2357   -2.0910    3.1496 C   0  0  0  0  0  0  0  0  0  0  0  0
   -0.8271   -2.5917    2.1880 C   0  0  0  0  0  0  0  0  0  0  0  0
   -1.7222   -1.4881    1.6563 C   0  0  0  0  0  0  0  0  0  0  0  0
   -1.0216   -0.6234    0.8845 F   0  0  0  0  0  0  0  0  0  0  0  0
   -2.6845   -2.0090    0.8481 F   0  0  0  0  0  0  0  0  0  0  0  0
   -0.2530   -3.2825    1.1699 F   0  0  0  0  0  0  0  0  0  0  0  0
   -1.6141   -3.4975    2.8483 F   0  0  0  0  0  0  0  0  0  0  0  0
    0.8754   -3.1616    3.7037 F   0  0  0  0  0  0  0  0  0  0  0  0
   -0.4040   -1.4844    4.2027 F   0  0  0  0  0  0  0  0  0  0  0  0
    2.1343   -0.7955    3.6404 F   0  0  0  0  0  0  0  0  0  0  0  0
    0.6685    0.0579    2.3123 F   0  0  0  0  0  0  0  0  0  0  0  0
    2.9752   -0.5390    1.0966 F   0  0  0  0  0  0  0  0  0  0  0  0
    1.3189   -1.7132    0.3384 F   0  0  0  0  0  0  0  0  0  0  0  0
    3.6133   -3.1051    0.4582 F   0  0  0  0  0  0  0  0  0  0  0  0
    2.1537   -3.8910    1.8538 F   0  0  0  0  0  0  0  0  0  0  0  0
    4.8164   -1.9460    2.4531 H   0  0  0  0  0  0  0  0  0  0  0  0
   -2.2209   -0.9335    2.4561 H   0  0  0  0  0  0  0  0  0  0  0  0
  1  2  2  0  0  0  0
  2  3  1  0  0  0  0
  2 21  1  0  0  0  0
  3 20  1  0  0  0  0
  3 19  1  0  0  0  0
  3  4  1  0  0  0  0
  4 18  1  0  0  0  0
  4 17  1  0  0  0  0
  4  5  1  0  0  0  0
  5 16  1  0  0  0  0
  5 15  1  0  0  0  0
  5  6  1  0  0  0  0
  6 14  1  0  0  0  0
  6 13  1  0  0  0  0
  6  7  1  0  0  0  0
  7 12  1  0  0  0  0
  7 11  1  0  0  0  0
  7  8  1  0  0  0  0
  8 10  1  0  0  0  0
  8  9  1  0  0  0  0
  8 22  1  0  0  0  0
M  END
$$$$