497306 497305
 OpenBabel01211413193D

 21 20  0  0  0  0  0  0  0  0999 V2000
    1.9593    0.2437    1.2121 C   0  0  0  0  0  0  0  0  0  0  0  0
    2.3404    0.1361   -0.0679 C   0  0  0  0  0  0  0  0  0  0  0  0
    3.2679   -1.2757   -0.8399 Si  0  0  0  0  0  0  0  0  0  0  0  0
    2.8404   -2.8763    0.0031 C   0  0  0  0  0  0  0  0  0  0  0  0
    1.6166   -3.4082    0.1269 C   0  0  0  0  0  0  0  0  0  0  0  0
    2.8132   -1.3978   -2.6387 C   0  0  0  0  0  0  0  0  0  0  0  0
    2.9935   -0.4547   -3.5734 C   0  0  0  0  0  0  0  0  0  0  0  0
    5.0951   -0.9709   -0.6913 C   0  0  0  0  0  0  0  0  0  0  0  0
    5.7905   -0.8388    0.4465 C   0  0  0  0  0  0  0  0  0  0  0  0
    1.4191    1.1215    1.5547 H   0  0  0  0  0  0  0  0  0  0  0  0
    2.1662   -0.5278    1.9490 H   0  0  0  0  0  0  0  0  0  0  0  0
    2.1112    0.9319   -0.7683 H   0  0  0  0  0  0  0  0  0  0  0  0
    3.7015   -3.3898    0.4176 H   0  0  0  0  0  0  0  0  0  0  0  0
    0.7282   -2.9235   -0.2702 H   0  0  0  0  0  0  0  0  0  0  0  0
    1.4750   -4.3540    0.6423 H   0  0  0  0  0  0  0  0  0  0  0  0
    2.3611   -2.3475   -2.9051 H   0  0  0  0  0  0  0  0  0  0  0  0
    3.4423    0.5104   -3.3519 H   0  0  0  0  0  0  0  0  0  0  0  0
    2.6888   -0.6327   -4.6012 H   0  0  0  0  0  0  0  0  0  0  0  0
    5.6014   -0.9019   -1.6480 H   0  0  0  0  0  0  0  0  0  0  0  0
    5.3228   -0.8977    1.4258 H   0  0  0  0  0  0  0  0  0  0  0  0
    6.8620   -0.6612    0.4205 H   0  0  0  0  0  0  0  0  0  0  0  0
  1  2  2  0  0  0  0
  1 10  1  0  0  0  0
  1 11  1  0  0  0  0
  2  3  1  0  0  0  0
  2 12  1  0  0  0  0
  3  8  1  0  0  0  0
  3  6  1  0  0  0  0
  3  4  1  0  0  0  0
  4  5  2  0  0  0  0
  4 13  1  0  0  0  0
  5 14  1  0  0  0  0
  5 15  1  0  0  0  0
  6  7  2  0  0  0  0
  6 16  1  0  0  0  0
  7 17  1  0  0  0  0
  7 18  1  0  0  0  0
  8  9  2  0  0  0  0
  8 19  1  0  0  0  0
  9 20  1  0  0  0  0
  9 21  1  0  0  0  0
M  END
$$$$