608699 608698
 OpenBabel01211413283D

 64 74  0  0  1  0  0  0  0  0999 V2000
    0.0220   -3.2482    8.0568 C   0  0  0  0  0  0  0  0  0  0  0  0
   -0.6686   -3.4276    6.9036 C   0  0  0  0  0  0  0  0  0  0  0  0
   -0.1944   -3.1215    5.5212 C   0  0  3  0  0  0  0  0  0  0  0  0
    1.2580   -3.4866    5.2380 C   0  0  3  0  0  0  0  0  0  0  0  0
    0.7910   -2.0094    5.2334 C   0  0  3  0  0  0  0  0  0  0  0  0
    0.9329   -0.9591    6.2878 C   0  0  0  0  0  0  0  0  0  0  0  0
    1.1324   -1.1394    7.5976 C   0  0  0  0  0  0  0  0  0  0  0  0
    1.3643   -2.5264    8.1628 C   0  0  3  0  0  0  0  0  0  0  0  0
    2.5232   -3.1964    7.3482 C   0  0  3  0  0  0  0  0  0  0  0  0
    3.8804   -3.4949    6.6740 C   0  0  3  0  0  0  0  0  0  0  0  0
    4.3234   -2.8186    5.4001 C   0  0  0  0  0  0  0  0  0  0  0  0
    5.2292   -3.4866    4.6596 C   0  0  0  0  0  0  0  0  0  0  0  0
    5.8809   -4.7705    5.1892 C   0  0  3  0  0  0  0  0  0  0  0  0
    5.0488   -5.3849    6.3996 C   0  0  3  0  0  0  0  0  0  0  0  0
    3.5072   -4.9384    6.3479 C   0  0  3  0  0  0  0  0  0  0  0  0
    2.0218   -4.2252    6.3589 C   0  0  3  0  0  0  0  0  0  0  0  0
    5.9261   -5.3642    7.7483 C   0  0  3  0  0  0  0  0  0  0  0  0
    7.0825   -6.3061    7.3450 C   0  0  0  0  0  0  0  0  0  0  0  0
    7.8400   -5.8364    6.3373 C   0  0  0  0  0  0  0  0  0  0  0  0
    7.3833   -4.5226    5.6973 C   0  0  3  0  0  0  0  0  0  0  0  0
    7.2248   -3.4309    6.7724 C   0  0  3  0  0  0  0  0  0  0  0  0
    6.8141   -4.0992    8.1402 C   0  0  3  0  0  0  0  0  0  0  0  0
    6.6249   -2.6516    8.6330 C   0  0  3  0  0  0  0  0  0  0  0  0
    7.7224   -2.2098    7.5996 C   0  0  3  0  0  0  0  0  0  0  0  0
    7.4273   -0.7256    7.1963 C   0  0  3  0  0  0  0  0  0  0  0  0
    5.9831   -0.2311    7.4167 C   0  0  0  0  0  0  0  0  0  0  0  0
    5.3618   -0.1214    8.6182 C   0  0  0  0  0  0  0  0  0  0  0  0
    5.8791   -0.5916    9.9447 C   0  0  3  0  0  0  0  0  0  0  0  0
    6.6723   -1.9212    9.9466 C   0  0  3  0  0  0  0  0  0  0  0  0
    7.3483   -0.5960   10.2629 C   0  0  3  0  0  0  0  0  0  0  0  0
    8.2622    0.1556    9.3838 C   0  0  0  0  0  0  0  0  0  0  0  0
    8.3271    0.1387    8.0383 C   0  0  0  0  0  0  0  0  0  0  0  0
   -0.4412   -3.5601    8.9927 H   0  0  0  0  0  0  0  0  0  0  0  0
   -1.6517   -3.8905    6.9596 H   0  0  0  0  0  0  0  0  0  0  0  0
   -0.9292   -3.3177    4.7433 H   0  0  0  0  0  0  0  0  0  0  0  0
    1.4933   -3.9412    4.2815 H   0  0  0  0  0  0  0  0  0  0  0  0
    0.7565   -1.5664    4.2392 H   0  0  0  0  0  0  0  0  0  0  0  0
    0.8234    0.0683    5.9311 H   0  0  0  0  0  0  0  0  0  0  0  0
    1.1970   -0.2823    8.2910 H   0  0  0  0  0  0  0  0  0  0  0  0
    1.6635   -2.4575    9.2152 H   0  0  0  0  0  0  0  0  0  0  0  0
    2.8371   -2.1714    7.1059 H   0  0  0  0  0  0  0  0  0  0  0  0
    4.5717   -3.4087    7.4799 H   0  0  0  0  0  0  0  0  0  0  0  0
    3.9198   -1.8523    5.1155 H   0  0  0  0  0  0  0  0  0  0  0  0
    5.6119   -3.0567    3.7365 H   0  0  0  0  0  0  0  0  0  0  0  0
    5.8857   -5.5008    4.3681 H   0  0  0  0  0  0  0  0  0  0  0  0
    4.9644   -6.4631    6.1698 H   0  0  0  0  0  0  0  0  0  0  0  0
    3.3944   -5.3297    5.3151 H   0  0  0  0  0  0  0  0  0  0  0  0
    1.3595   -5.0125    6.7484 H   0  0  0  0  0  0  0  0  0  0  0  0
    5.3785   -5.7501    8.6124 H   0  0  0  0  0  0  0  0  0  0  0  0
    7.2724   -7.2365    7.8747 H   0  0  0  0  0  0  0  0  0  0  0  0
    8.7039   -6.3770    5.9540 H   0  0  0  0  0  0  0  0  0  0  0  0
    8.0304   -4.2116    4.8715 H   0  0  0  0  0  0  0  0  0  0  0  0
    6.4895   -2.8233    6.2687 H   0  0  0  0  0  0  0  0  0  0  0  0
    7.6615   -4.4889    8.7389 H   0  0  0  0  0  0  0  0  0  0  0  0
    5.6111   -2.4084    8.3482 H   0  0  0  0  0  0  0  0  0  0  0  0
    8.7634   -2.3620    7.9289 H   0  0  0  0  0  0  0  0  0  0  0  0
    7.6792   -0.5868    6.1403 H   0  0  0  0  0  0  0  0  0  0  0  0
    5.4411    0.0797    6.5235 H   0  0  0  0  0  0  0  0  0  0  0  0
    4.3398    0.2590    8.6253 H   0  0  0  0  0  0  0  0  0  0  0  0
    5.1824   -0.4444   10.7654 H   0  0  0  0  0  0  0  0  0  0  0  0
    6.4813   -2.6131   10.7586 H   0  0  0  0  0  0  0  0  0  0  0  0
    7.6046   -0.4561   11.3113 H   0  0  0  0  0  0  0  0  0  0  0  0
    8.9185    0.8657    9.8823 H   0  0  0  0  0  0  0  0  0  0  0  0
    9.0005    0.8119    7.5043 H   0  0  0  0  0  0  0  0  0  0  0  0
  1  2  2  0  0  0  0
  1  8  1  0  0  0  0
  1 33  1  0  0  0  0
  2  3  1  0  0  0  0
  2 34  1  0  0  0  0
  3  4  1  0  0  0  0
  3  5  1  0  0  0  0
  3 35  1  0  0  0  0
  4 16  1  0  0  0  0
  4  5  1  0  0  0  0
  4 36  1  0  0  0  0
  5  6  1  0  0  0  0
  5 37  1  0  0  0  0
  6  7  2  0  0  0  0
  6 38  1  0  0  0  0
  7  8  1  0  0  0  0
  7 39  1  0  0  0  0
  8  9  1  0  0  0  0
  8 40  1  0  0  0  0
  9 16  1  0  0  0  0
  9 10  1  0  0  0  0
  9 41  1  0  0  0  0
 10 15  1  0  0  0  0
 10 11  1  0  0  0  0
 10 42  1  0  0  0  0
 11 12  2  0  0  0  0
 11 43  1  0  0  0  0
 12 13  1  0  0  0  0
 12 44  1  0  0  0  0
 13 14  1  0  0  0  0
 13 20  1  0  0  0  0
 13 45  1  0  0  0  0
 14 17  1  0  0  0  0
 14 15  1  0  0  0  0
 14 46  1  0  0  0  0
 15 16  1  0  0  0  0
 15 47  1  0  0  0  0
 16 48  1  0  0  0  0
 17 22  1  0  0  0  0
 17 18  1  0  0  0  0
 17 49  1  0  0  0  0
 18 19  2  0  0  0  0
 18 50  1  0  0  0  0
 19 20  1  0  0  0  0
 19 51  1  0  0  0  0
 20 21  1  0  0  0  0
 20 52  1  0  0  0  0
 21 22  1  0  0  0  0
 21 24  1  0  0  0  0
 21 53  1  0  0  0  0
 22 23  1  0  0  0  0
 22 54  1  0  0  0  0
 23 29  1  0  0  0  0
 23 24  1  0  0  0  0
 23 55  1  0  0  0  0
 24 25  1  0  0  0  0
 24 56  1  0  0  0  0
 25 32  1  0  0  0  0
 25 26  1  0  0  0  0
 25 57  1  0  0  0  0
 26 27  2  0  0  0  0
 26 58  1  0  0  0  0
 27 28  1  0  0  0  0
 27 59  1  0  0  0  0
 28 29  1  0  0  0  0
 28 30  1  0  0  0  0
 28 60  1  0  0  0  0
 29 30  1  0  0  0  0
 29 61  1  0  0  0  0
 30 31  1  0  0  0  0
 30 62  1  0  0  0  0
 31 32  2  0  0  0  0
 31 63  1  0  0  0  0
 32 64  1  0  0  0  0
M  END
$$$$