6743308 6743307
 OpenBabel01211413573D

 46 49  0  0  0  0  0  0  0  0999 V2000
    6.5486   -8.8121    1.3437 F   0  0  0  0  0  0  0  0  0  0  0  0
    7.2316   -7.7876    0.8112 C   0  0  0  0  0  0  0  0  0  0  0  0
    8.0141   -7.9935   -0.3173 C   0  0  0  0  0  0  0  0  0  0  0  0
    8.7064   -6.9179   -0.8853 C   0  0  0  0  0  0  0  0  0  0  0  0
    8.6216   -5.6261   -0.3489 C   0  0  0  0  0  0  0  0  0  0  0  0
    7.8541   -5.4750    0.8287 C   0  0  0  0  0  0  0  0  0  0  0  0
    7.1492   -6.5370    1.3966 C   0  0  0  0  0  0  0  0  0  0  0  0
    9.2726   -4.5999   -0.9759 N   0  0  0  0  0  0  0  0  0  0  0  0
    8.4012   -3.2758   -0.8880 P   0  0  3  0  0  0  0  0  0  0  0  0
   10.0965   -2.4957   -0.5294 C   0  0  0  0  0  0  0  0  0  0  0  0
   10.6477   -1.5165   -1.3734 C   0  0  0  0  0  0  0  0  0  0  0  0
   11.9163   -0.9830   -1.1318 C   0  0  0  0  0  0  0  0  0  0  0  0
   12.6504   -1.4058   -0.0271 C   0  0  0  0  0  0  0  0  0  0  0  0
   12.1040   -2.3408    0.8502 C   0  0  0  0  0  0  0  0  0  0  0  0
   10.8299   -2.8650    0.6135 C   0  0  0  0  0  0  0  0  0  0  0  0
    8.3423   -3.5675   -2.7752 C   0  0  0  0  0  0  0  0  0  0  0  0
    7.0818   -3.7649   -3.3623 C   0  0  0  0  0  0  0  0  0  0  0  0
    6.9583   -3.9187   -4.7455 C   0  0  0  0  0  0  0  0  0  0  0  0
    8.0909   -3.8957   -5.5602 C   0  0  0  0  0  0  0  0  0  0  0  0
    9.3528   -3.7340   -4.9921 C   0  0  0  0  0  0  0  0  0  0  0  0
    9.4765   -3.5747   -3.6117 C   0  0  0  0  0  0  0  0  0  0  0  0
    7.4176   -1.7812   -0.7888 C   0  0  0  0  0  0  0  0  0  0  0  0
    7.3416   -0.8080   -1.7943 C   0  0  0  0  0  0  0  0  0  0  0  0
    6.5511    0.3337   -1.6413 C   0  0  0  0  0  0  0  0  0  0  0  0
    5.8135    0.5181   -0.4760 C   0  0  0  0  0  0  0  0  0  0  0  0
    5.8683   -0.4409    0.5325 C   0  0  0  0  0  0  0  0  0  0  0  0
    6.6647   -1.5791    0.3754 C   0  0  0  0  0  0  0  0  0  0  0  0
    8.0760   -8.9782   -0.7597 H   0  0  0  0  0  0  0  0  0  0  0  0
    9.3016   -7.0770   -1.7822 H   0  0  0  0  0  0  0  0  0  0  0  0
    7.7926   -4.5049    1.3152 H   0  0  0  0  0  0  0  0  0  0  0  0
    6.5422   -6.3822    2.2796 H   0  0  0  0  0  0  0  0  0  0  0  0
   10.1008   -1.1917   -2.2501 H   0  0  0  0  0  0  0  0  0  0  0  0
   12.3312   -0.2550   -1.8212 H   0  0  0  0  0  0  0  0  0  0  0  0
   13.6486   -1.0165    0.1438 H   0  0  0  0  0  0  0  0  0  0  0  0
   12.6743   -2.6886    1.7051 H   0  0  0  0  0  0  0  0  0  0  0  0
   10.4208   -3.6217    1.2773 H   0  0  0  0  0  0  0  0  0  0  0  0
    6.2050   -3.7896   -2.7231 H   0  0  0  0  0  0  0  0  0  0  0  0
    5.9756   -4.0624   -5.1823 H   0  0  0  0  0  0  0  0  0  0  0  0
    7.9941   -4.0227   -6.6336 H   0  0  0  0  0  0  0  0  0  0  0  0
   10.2430   -3.7464   -5.6097 H   0  0  0  0  0  0  0  0  0  0  0  0
   10.4656   -3.4975   -3.1692 H   0  0  0  0  0  0  0  0  0  0  0  0
    7.8996   -0.9382   -2.7166 H   0  0  0  0  0  0  0  0  0  0  0  0
    6.5170    1.0712   -2.4371 H   0  0  0  0  0  0  0  0  0  0  0  0
    5.1997    1.4047   -0.3551 H   0  0  0  0  0  0  0  0  0  0  0  0
    5.2961   -0.3071    1.4450 H   0  0  0  0  0  0  0  0  0  0  0  0
    6.7063   -2.3224    1.1664 H   0  0  0  0  0  0  0  0  0  0  0  0
  1  2  1  0  0  0  0
  2  3  2  0  0  0  0
  2  7  1  0  0  0  0
  3  4  1  0  0  0  0
  3 28  1  0  0  0  0
  4  5  2  0  0  0  0
  4 29  1  0  0  0  0
  5  6  1  0  0  0  0
  5  8  1  0  0  0  0
  6  7  2  0  0  0  0
  6 30  1  0  0  0  0
  7 31  1  0  0  0  0
  8  9  2  0  0  0  0
  9 22  1  0  0  0  0
  9 16  1  0  0  0  0
  9 10  1  0  0  0  0
 10 11  2  0  0  0  0
 10 15  1  0  0  0  0
 11 12  1  0  0  0  0
 11 32  1  0  0  0  0
 12 13  2  0  0  0  0
 12 33  1  0  0  0  0
 13 14  1  0  0  0  0
 13 34  1  0  0  0  0
 14 15  2  0  0  0  0
 14 35  1  0  0  0  0
 15 36  1  0  0  0  0
 16 17  2  0  0  0  0
 16 21  1  0  0  0  0
 17 18  1  0  0  0  0
 17 37  1  0  0  0  0
 18 19  2  0  0  0  0
 18 38  1  0  0  0  0
 19 20  1  0  0  0  0
 19 39  1  0  0  0  0
 20 21  2  0  0  0  0
 20 40  1  0  0  0  0
 21 41  1  0  0  0  0
 22 23  2  0  0  0  0
 22 27  1  0  0  0  0
 23 24  1  0  0  0  0
 23 42  1  0  0  0  0
 24 25  2  0  0  0  0
 24 43  1  0  0  0  0
 25 26  1  0  0  0  0
 25 44  1  0  0  0  0
 26 27  2  0  0  0  0
 26 45  1  0  0  0  0
 27 46  1  0  0  0  0
M  END
$$$$