901335 901334
 OpenBabel01211413343D

 30 31  0  0  0  0  0  0  0  0999 V2000
   -0.2933   -2.6625    1.7364 N   0  0  0  0  0  0  0  0  0  0  0  0
    0.7890   -2.6162    0.8643 C   0  0  0  0  0  0  0  0  0  0  0  0
    0.5554   -2.3244   -0.4354 N   0  0  0  0  0  0  0  0  0  0  0  0
    1.6091   -2.2751   -1.2805 C   0  0  0  0  0  0  0  0  0  0  0  0
    2.9164   -2.4633   -1.0057 N   0  0  0  0  0  0  0  0  0  0  0  0
    3.0926   -2.7356    0.2979 C   0  0  0  0  0  0  0  0  0  0  0  0
    2.1150   -2.8286    1.2761 C   0  0  0  0  0  0  0  0  0  0  0  0
    2.6739   -3.1026    2.5087 N   0  0  0  0  0  0  0  0  0  0  0  0
    3.9689   -3.1735    2.2797 C   0  0  0  0  0  0  0  0  0  0  0  0
    4.2656   -2.9704    0.9577 N   0  0  0  0  0  0  0  0  0  0  0  0
    5.5893   -2.9949    0.3705 C   0  0  0  0  0  0  0  0  0  0  0  0
    6.2277   -1.6108    0.3413 C   0  0  0  0  0  0  0  0  0  0  0  0
    6.5260   -1.1981    1.6766 O   0  0  0  0  0  0  0  0  0  0  0  0
    7.0466    0.1386    1.7145 C   0  0  0  0  0  0  0  0  0  0  0  0
    7.2623    0.6509    3.4196 P   0  0  0  0  0  0  0  0  0  0  0  0
    7.7863    2.0283    3.6637 O   0  0  0  0  0  0  0  0  0  0  0  0
    5.8608    0.4161    4.1632 O   0  0  0  0  0  0  0  0  0  0  0  0
    8.1784   -0.4566    4.1339 O   0  0  0  0  0  0  0  0  0  0  0  0
   -1.0738   -2.1180    1.3938 H   0  0  0  0  0  0  0  0  0  0  0  0
   -0.0204   -2.5316    2.7049 H   0  0  0  0  0  0  0  0  0  0  0  0
    1.3690   -2.0530   -2.3156 H   0  0  0  0  0  0  0  0  0  0  0  0
    4.7334   -3.3579    3.0248 H   0  0  0  0  0  0  0  0  0  0  0  0
    5.4954   -3.3972   -0.6439 H   0  0  0  0  0  0  0  0  0  0  0  0
    6.1935   -3.6933    0.9608 H   0  0  0  0  0  0  0  0  0  0  0  0
    5.5600   -0.8836   -0.1352 H   0  0  0  0  0  0  0  0  0  0  0  0
    7.1647   -1.6563   -0.2253 H   0  0  0  0  0  0  0  0  0  0  0  0
    6.3469    0.8230    1.2241 H   0  0  0  0  0  0  0  0  0  0  0  0
    8.0097    0.1669    1.1957 H   0  0  0  0  0  0  0  0  0  0  0  0
    5.8142    0.8296    5.0434 H   0  0  0  0  0  0  0  0  0  0  0  0
    8.4933   -0.1776    5.0122 H   0  0  0  0  0  0  0  0  0  0  0  0
  1  2  1  0  0  0  0
  1 19  1  0  0  0  0
  1 20  1  0  0  0  0
  2  3  2  0  0  0  0
  2  7  1  0  0  0  0
  3  4  1  0  0  0  0
  4  5  2  0  0  0  0
  4 21  1  0  0  0  0
  5  6  1  0  0  0  0
  6 10  1  0  0  0  0
  6  7  2  0  0  0  0
  7  8  1  0  0  0  0
  8  9  2  0  0  0  0
  9 10  1  0  0  0  0
  9 22  1  0  0  0  0
 10 11  1  0  0  0  0
 11 12  1  0  0  0  0
 11 23  1  0  0  0  0
 11 24  1  0  0  0  0
 12 13  1  0  0  0  0
 12 25  1  0  0  0  0
 12 26  1  0  0  0  0
 13 14  1  0  0  0  0
 14 15  1  0  0  0  0
 14 27  1  0  0  0  0
 14 28  1  0  0  0  0
 15 18  1  0  0  0  0
 15 17  1  0  0  0  0
 15 16  2  0  0  0  0
 17 29  1  0  0  0  0
 18 30  1  0  0  0  0
M  END
$$$$