4853397 4853396
 OpenBabel01211413543D

 24 25  0  0  0  0  0  0  0  0999 V2000
    2.4984    0.6162   -0.4322 O   0  0  0  0  0  0  0  0  0  0  0  0
    3.2477    0.3559    0.5015 C   0  0  0  0  0  0  0  0  0  0  0  0
    3.4467   -1.0113    0.9755 C   0  0  0  0  0  0  0  0  0  0  0  0
    4.2897   -1.4742    1.9676 C   0  0  0  0  0  0  0  0  0  0  0  0
    4.1369   -2.8326    2.0691 N   0  0  0  0  0  0  0  0  0  0  0  0
    4.6288   -3.4388    2.7174 H   0  0  0  0  0  0  0  0  0  0  0  0
    3.2118   -3.2857    1.1498 C   0  0  0  0  0  0  0  0  0  0  0  0
    2.7770   -2.1660    0.4632 C   0  0  0  0  0  0  0  0  0  0  0  0
    2.8723   -4.7093    1.0499 C   0  0  0  0  0  0  0  0  0  0  0  0
    3.4254   -5.4908    1.8310 O   0  0  0  0  0  0  0  0  0  0  0  0
    1.8581   -5.1906   -0.0134 C   0  0  0  0  0  0  0  0  0  0  0  0
    2.4730   -4.8221   -1.6490 Cl  0  0  0  0  0  0  0  0  0  0  0  0
    1.6340   -6.9689    0.1009 Cl  0  0  0  0  0  0  0  0  0  0  0  0
    0.2687   -4.4249    0.2610 Cl  0  0  0  0  0  0  0  0  0  0  0  0
    4.0166    1.4384    1.1847 C   0  0  0  0  0  0  0  0  0  0  0  0
    5.0370    2.2356    0.4027 C   0  0  0  0  0  0  0  0  0  0  0  0
    3.7575    2.8889    0.8345 C   0  0  0  0  0  0  0  0  0  0  0  0
    4.9901   -0.9636    2.6157 H   0  0  0  0  0  0  0  0  0  0  0  0
    2.0474   -2.1315   -0.3386 H   0  0  0  0  0  0  0  0  0  0  0  0
    4.2378    1.2569    2.2315 H   0  0  0  0  0  0  0  0  0  0  0  0
    5.1591    2.0232   -0.6544 H   0  0  0  0  0  0  0  0  0  0  0  0
    5.9509    2.5299    0.9047 H   0  0  0  0  0  0  0  0  0  0  0  0
    3.7979    3.6188    1.6342 H   0  0  0  0  0  0  0  0  0  0  0  0
    3.0193    3.1134    0.0710 H   0  0  0  0  0  0  0  0  0  0  0  0
  1  2  2  0  0  0  0
  2 15  1  0  0  0  0
  2  3  1  0  0  0  0
  3  4  2  0  0  0  0
  3  8  1  0  0  0  0
  4  5  1  0  0  0  0
  4 18  1  0  0  0  0
  5  7  1  0  0  0  0
  5  6  1  0  0  0  0
  7  8  2  0  0  0  0
  7  9  1  0  0  0  0
  8 19  1  0  0  0  0
  9 11  1  0  0  0  0
  9 10  2  0  0  0  0
 11 14  1  0  0  0  0
 11 13  1  0  0  0  0
 11 12  1  0  0  0  0
 15 17  1  0  0  0  0
 15 16  1  0  0  0  0
 15 20  1  0  0  0  0
 16 17  1  0  0  0  0
 16 21  1  0  0  0  0
 16 22  1  0  0  0  0
 17 23  1  0  0  0  0
 17 24  1  0  0  0  0
M  END
$$$$