651310 651309
 OpenBabel01211413303D

 26 27  0  0  0  0  0  0  0  0999 V2000
    1.0810    0.1112   -0.6957 C   0  0  0  0  0  0  0  0  0  0  0  0
    2.4526    0.2535   -0.1998 N   0  0  0  0  0  0  0  0  0  0  0  0
    2.9960   -0.6894    0.7165 C   0  0  0  0  0  0  0  0  0  0  0  0
    4.1819   -0.7018    1.0486 O   0  0  0  0  0  0  0  0  0  0  0  0
    2.1153   -1.6991    1.3039 C   0  0  0  0  0  0  0  0  0  0  0  0
    2.4248   -2.9537    1.8038 C   0  0  0  0  0  0  0  0  0  0  0  0
    1.2276   -3.5077    2.3100 C   0  0  0  0  0  0  0  0  0  0  0  0
    0.2581   -2.5525    2.1217 C   0  0  0  0  0  0  0  0  0  0  0  0
    0.7846   -1.4496    1.5292 O   0  0  0  0  0  0  0  0  0  0  0  0
    3.2158    1.3725   -0.7110 C   0  0  0  0  0  0  0  0  0  0  0  0
    4.6173    1.3859   -0.7443 C   0  0  0  0  0  0  0  0  0  0  0  0
    5.3310    2.4729   -1.2689 C   0  0  0  0  0  0  0  0  0  0  0  0
    4.6561    3.5767   -1.7762 C   0  0  0  0  0  0  0  0  0  0  0  0
    3.2672    3.5952   -1.7511 C   0  0  0  0  0  0  0  0  0  0  0  0
    2.5590    2.5081   -1.2230 C   0  0  0  0  0  0  0  0  0  0  0  0
    0.9802    0.5144   -1.7079 H   0  0  0  0  0  0  0  0  0  0  0  0
    0.3980    0.6270   -0.0146 H   0  0  0  0  0  0  0  0  0  0  0  0
    0.8036   -0.9423   -0.7811 H   0  0  0  0  0  0  0  0  0  0  0  0
    3.4118   -3.4000    1.7956 H   0  0  0  0  0  0  0  0  0  0  0  0
    1.0900   -4.4779    2.7684 H   0  0  0  0  0  0  0  0  0  0  0  0
   -0.7965   -2.5018    2.3505 H   0  0  0  0  0  0  0  0  0  0  0  0
    5.2102    0.5430   -0.4044 H   0  0  0  0  0  0  0  0  0  0  0  0
    6.4173    2.4444   -1.2836 H   0  0  0  0  0  0  0  0  0  0  0  0
    5.2112    4.4168   -2.1856 H   0  0  0  0  0  0  0  0  0  0  0  0
    2.7298    4.4576   -2.1380 H   0  0  0  0  0  0  0  0  0  0  0  0
    1.4776    2.5956   -1.1977 H   0  0  0  0  0  0  0  0  0  0  0  0
  1  2  1  0  0  0  0
  1 16  1  0  0  0  0
  1 17  1  0  0  0  0
  1 18  1  0  0  0  0
  2 10  1  0  0  0  0
  2  3  1  0  0  0  0
  3  5  1  0  0  0  0
  3  4  2  0  0  0  0
  5  6  2  0  0  0  0
  5  9  1  0  0  0  0
  6  7  1  0  0  0  0
  6 19  1  0  0  0  0
  7  8  2  0  0  0  0
  7 20  1  0  0  0  0
  8  9  1  0  0  0  0
  8 21  1  0  0  0  0
 10 11  2  0  0  0  0
 10 15  1  0  0  0  0
 11 12  1  0  0  0  0
 11 22  1  0  0  0  0
 12 13  2  0  0  0  0
 12 23  1  0  0  0  0
 13 14  1  0  0  0  0
 13 24  1  0  0  0  0
 14 15  2  0  0  0  0
 14 25  1  0  0  0  0
 15 26  1  0  0  0  0
M  END
$$$$