13179955 13179954
 OpenBabel01211413593D

 25 25  0  0  1  0  0  0  0  0999 V2000
    1.1275   -0.8247    0.4487 C   0  0  0  0  0  0  0  0  0  0  0  0
    2.0792   -0.7247   -0.4880 C   0  0  0  0  0  0  0  0  0  0  0  0
    3.1637   -1.7472   -0.7125 C   0  0  0  0  0  0  0  0  0  0  0  0
    4.6168   -1.2347   -0.5388 C   0  0  3  0  0  0  0  0  0  0  0  0
    4.8471   -0.6058    0.8397 C   0  0  0  0  0  0  0  0  0  0  0  0
    5.7079   -2.3171   -0.8275 C   0  0  3  0  0  0  0  0  0  0  0  0
    5.2663   -3.7736   -0.7213 C   0  0  0  0  0  0  0  0  0  0  0  0
    6.2006   -1.9922   -2.2116 C   0  0  0  0  0  0  0  0  0  0  0  0
    5.7916   -0.8130   -2.6816 C   0  0  0  0  0  0  0  0  0  0  0  0
    4.9274   -0.2345   -1.6438 C   0  0  0  0  0  0  0  0  0  0  0  0
    4.5134    0.9130   -1.7212 O   0  0  0  0  0  0  0  0  0  0  0  0
    0.3720   -0.0507    0.5504 H   0  0  0  0  0  0  0  0  0  0  0  0
    1.0768   -1.6670    1.1307 H   0  0  0  0  0  0  0  0  0  0  0  0
    2.0722    0.1439   -1.1461 H   0  0  0  0  0  0  0  0  0  0  0  0
    3.0268   -2.1370   -1.7298 H   0  0  0  0  0  0  0  0  0  0  0  0
    2.9939   -2.5889   -0.0294 H   0  0  0  0  0  0  0  0  0  0  0  0
    5.8658   -0.2106    0.9305 H   0  0  0  0  0  0  0  0  0  0  0  0
    4.6990   -1.3441    1.6352 H   0  0  0  0  0  0  0  0  0  0  0  0
    4.1722    0.2365    1.0242 H   0  0  0  0  0  0  0  0  0  0  0  0
    6.5599   -2.1851   -0.1463 H   0  0  0  0  0  0  0  0  0  0  0  0
    4.4934   -4.0301   -1.4535 H   0  0  0  0  0  0  0  0  0  0  0  0
    4.8852   -3.9915    0.2817 H   0  0  0  0  0  0  0  0  0  0  0  0
    6.1143   -4.4446   -0.9018 H   0  0  0  0  0  0  0  0  0  0  0  0
    6.8826   -2.6371   -2.7528 H   0  0  0  0  0  0  0  0  0  0  0  0
    6.0310   -0.3237   -3.6088 H   0  0  0  0  0  0  0  0  0  0  0  0
  1  2  2  0  0  0  0
  1 12  1  0  0  0  0
  1 13  1  0  0  0  0
  2  3  1  0  0  0  0
  2 14  1  0  0  0  0
  3  4  1  0  0  0  0
  3 15  1  0  0  0  0
  3 16  1  0  0  0  0
  4 10  1  0  0  0  0
  4  6  1  0  0  0  0
  4  5  1  0  0  0  0
  5 17  1  0  0  0  0
  5 18  1  0  0  0  0
  5 19  1  0  0  0  0
  6  8  1  0  0  0  0
  6  7  1  0  0  0  0
  6 20  1  0  0  0  0
  7 21  1  0  0  0  0
  7 22  1  0  0  0  0
  7 23  1  0  0  0  0
  8  9  2  0  0  0  0
  8 24  1  0  0  0  0
  9 10  1  0  0  0  0
  9 25  1  0  0  0  0
 10 11  2  0  0  0  0
M  END
$$$$