120672 120671
 OpenBabel01211413153D

 31 31  0  0  0  0  0  0  0  0999 V2000
    1.6793   -1.0325   -0.6725 C   0  0  0  0  0  0  0  0  0  0  0  0
    2.7194    0.0312   -0.3141 C   0  0  0  0  0  0  0  0  0  0  0  0
    2.6213    1.2480   -1.2467 C   0  0  0  0  0  0  0  0  0  0  0  0
    2.8760    0.8237   -2.5863 O   0  0  0  0  0  0  0  0  0  0  0  0
    2.8199    1.7745   -3.5656 C   0  0  0  0  0  0  0  0  0  0  0  0
    2.5651    3.1313   -3.3832 C   0  0  0  0  0  0  0  0  0  0  0  0
    2.5494    3.9974   -4.4845 C   0  0  0  0  0  0  0  0  0  0  0  0
    2.7685    3.5186   -5.7815 C   0  0  0  0  0  0  0  0  0  0  0  0
    3.0436    2.1628   -5.9555 C   0  0  0  0  0  0  0  0  0  0  0  0
    3.0625    1.2988   -4.8548 C   0  0  0  0  0  0  0  0  0  0  0  0
    2.7593    4.4642   -6.8261 N   0  0  0  0  0  0  0  0  0  0  0  0
    2.7158    4.3153   -8.1715 C   0  0  0  0  0  0  0  0  0  0  0  0
    3.0823    5.5907   -9.1738 S   0  0  0  0  0  0  0  0  0  0  0  0
    2.3206    3.1401   -8.6968 N   0  0  0  0  0  0  0  0  0  0  0  0
    2.5586    0.4617    1.1425 C   0  0  0  0  0  0  0  0  0  0  0  0
    1.7548   -1.8914    0.0029 H   0  0  0  0  0  0  0  0  0  0  0  0
    1.8261   -1.4018   -1.6927 H   0  0  0  0  0  0  0  0  0  0  0  0
    0.6621   -0.6329   -0.5995 H   0  0  0  0  0  0  0  0  0  0  0  0
    3.7103   -0.4241   -0.4388 H   0  0  0  0  0  0  0  0  0  0  0  0
    3.3720    1.9903   -0.9481 H   0  0  0  0  0  0  0  0  0  0  0  0
    1.6189    1.6886   -1.1750 H   0  0  0  0  0  0  0  0  0  0  0  0
    2.3796    3.5524   -2.4009 H   0  0  0  0  0  0  0  0  0  0  0  0
    2.3482    5.0520   -4.3118 H   0  0  0  0  0  0  0  0  0  0  0  0
    3.3040    1.7515   -6.9249 H   0  0  0  0  0  0  0  0  0  0  0  0
    3.2880    0.2454   -5.0044 H   0  0  0  0  0  0  0  0  0  0  0  0
    2.8517    5.4340   -6.5421 H   0  0  0  0  0  0  0  0  0  0  0  0
    1.6723    2.5776   -8.1614 H   0  0  0  0  0  0  0  0  0  0  0  0
    2.1876    3.1180   -9.7010 H   0  0  0  0  0  0  0  0  0  0  0  0
    1.5794    0.9212    1.3155 H   0  0  0  0  0  0  0  0  0  0  0  0
    3.3283    1.1895    1.4201 H   0  0  0  0  0  0  0  0  0  0  0  0
    2.6533   -0.3972    1.8152 H   0  0  0  0  0  0  0  0  0  0  0  0
  1  2  1  0  0  0  0
  1 16  1  0  0  0  0
  1 17  1  0  0  0  0
  1 18  1  0  0  0  0
  2 15  1  0  0  0  0
  2  3  1  0  0  0  0
  2 19  1  0  0  0  0
  3  4  1  0  0  0  0
  3 20  1  0  0  0  0
  3 21  1  0  0  0  0
  4  5  1  0  0  0  0
  5  6  2  0  0  0  0
  5 10  1  0  0  0  0
  6  7  1  0  0  0  0
  6 22  1  0  0  0  0
  7  8  2  0  0  0  0
  7 23  1  0  0  0  0
  8  9  1  0  0  0  0
  8 11  1  0  0  0  0
  9 10  2  0  0  0  0
  9 24  1  0  0  0  0
 10 25  1  0  0  0  0
 11 12  1  0  0  0  0
 11 26  1  0  0  0  0
 12 14  1  0  0  0  0
 12 13  2  0  0  0  0
 14 27  1  0  0  0  0
 14 28  1  0  0  0  0
 15 29  1  0  0  0  0
 15 30  1  0  0  0  0
 15 31  1  0  0  0  0
M  END
$$$$