590842 590841
 OpenBabel01211413273D

 39 42  0  0  1  0  0  0  0  0999 V2000
    1.7773    1.2079    0.5316 O   0  0  0  0  0  0  0  0  0  0  0  0
    2.2644    0.0409    0.0661 C   0  0  0  0  0  0  0  0  0  0  0  0
    2.0730   -0.9886    0.6914 O   0  0  0  0  0  0  0  0  0  0  0  0
    3.0208    0.1836   -1.2449 C   0  0  3  0  0  0  0  0  0  0  0  0
    4.2139    1.1448   -1.0726 C   0  0  0  0  0  0  0  0  0  0  0  0
    4.9790    1.2785   -2.3962 C   0  0  3  0  0  0  0  0  0  0  0  0
    4.0308    1.8129   -3.4815 C   0  0  0  0  0  0  0  0  0  0  0  0
    2.8470    0.8509   -3.6707 C   0  0  3  0  0  0  0  0  0  0  0  0
    2.0833    0.7187   -2.3457 C   0  0  0  0  0  0  0  0  0  0  0  0
    3.3759   -0.5286   -4.0991 C   0  0  0  0  0  0  0  0  0  0  0  0
    4.3491   -1.1111   -3.0340 C   0  0  3  0  0  0  0  0  0  0  0  0
    3.5628   -1.1950   -1.6913 C   0  0  0  0  0  0  0  0  0  0  0  0
    5.5126   -0.0995   -2.8210 C   0  0  0  0  0  0  0  0  0  0  0  0
    4.9059   -2.4634   -3.5100 C   0  0  0  0  0  0  0  0  0  0  0  0
    5.6558   -2.5412   -4.7004 C   0  0  0  0  0  0  0  0  0  0  0  0
    6.1815   -3.7536   -5.1568 C   0  0  0  0  0  0  0  0  0  0  0  0
    5.9679   -4.9214   -4.4342 C   0  0  0  0  0  0  0  0  0  0  0  0
    5.2283   -4.8745   -3.2579 C   0  0  0  0  0  0  0  0  0  0  0  0
    4.7036   -3.6602   -2.8016 C   0  0  0  0  0  0  0  0  0  0  0  0
    1.3247    0.9578    1.3645 H   0  0  0  0  0  0  0  0  0  0  0  0
    4.8856    0.7809   -0.2841 H   0  0  0  0  0  0  0  0  0  0  0  0
    3.8699    2.1354   -0.7481 H   0  0  0  0  0  0  0  0  0  0  0  0
    5.8175    1.9720   -2.2666 H   0  0  0  0  0  0  0  0  0  0  0  0
    3.6631    2.8074   -3.2000 H   0  0  0  0  0  0  0  0  0  0  0  0
    4.5728    1.9310   -4.4279 H   0  0  0  0  0  0  0  0  0  0  0  0
    2.1755    1.2419   -4.4434 H   0  0  0  0  0  0  0  0  0  0  0  0
    1.6715    1.6958   -2.0617 H   0  0  0  0  0  0  0  0  0  0  0  0
    1.2226    0.0492   -2.4722 H   0  0  0  0  0  0  0  0  0  0  0  0
    3.8719   -0.4245   -5.0723 H   0  0  0  0  0  0  0  0  0  0  0  0
    2.5337   -1.2158   -4.2562 H   0  0  0  0  0  0  0  0  0  0  0  0
    2.7210   -1.8950   -1.7915 H   0  0  0  0  0  0  0  0  0  0  0  0
    4.2104   -1.5998   -0.9004 H   0  0  0  0  0  0  0  0  0  0  0  0
    6.2073   -0.4792   -2.0596 H   0  0  0  0  0  0  0  0  0  0  0  0
    6.1019    0.0251   -3.7380 H   0  0  0  0  0  0  0  0  0  0  0  0
    5.8445   -1.6502   -5.2951 H   0  0  0  0  0  0  0  0  0  0  0  0
    6.7581   -3.7818   -6.0775 H   0  0  0  0  0  0  0  0  0  0  0  0
    6.3757   -5.8649   -4.7858 H   0  0  0  0  0  0  0  0  0  0  0  0
    5.0564   -5.7843   -2.6882 H   0  0  0  0  0  0  0  0  0  0  0  0
    4.1348   -3.6850   -1.8761 H   0  0  0  0  0  0  0  0  0  0  0  0
  1  2  1  0  0  0  0
  1 20  1  0  0  0  0
  2  4  1  0  0  0  0
  2  3  2  0  0  0  0
  4  5  1  0  0  0  0
  4  9  1  0  0  0  0
  4 12  1  0  0  0  0
  5  6  1  0  0  0  0
  5 21  1  0  0  0  0
  5 22  1  0  0  0  0
  6  7  1  0  0  0  0
  6 13  1  0  0  0  0
  6 23  1  0  0  0  0
  7  8  1  0  0  0  0
  7 24  1  0  0  0  0
  7 25  1  0  0  0  0
  8  9  1  0  0  0  0
  8 10  1  0  0  0  0
  8 26  1  0  0  0  0
  9 27  1  0  0  0  0
  9 28  1  0  0  0  0
 10 11  1  0  0  0  0
 10 29  1  0  0  0  0
 10 30  1  0  0  0  0
 11 13  1  0  0  0  0
 11 12  1  0  0  0  0
 11 14  1  0  0  0  0
 12 31  1  0  0  0  0
 12 32  1  0  0  0  0
 13 33  1  0  0  0  0
 13 34  1  0  0  0  0
 14 15  2  0  0  0  0
 14 19  1  0  0  0  0
 15 16  1  0  0  0  0
 15 35  1  0  0  0  0
 16 17  2  0  0  0  0
 16 36  1  0  0  0  0
 17 18  1  0  0  0  0
 17 37  1  0  0  0  0
 18 19  2  0  0  0  0
 18 38  1  0  0  0  0
 19 39  1  0  0  0  0
M  END
$$$$