724864 724863
 OpenBabel01211413333D

 12 12  0  0  0  0  0  0  0  0999 V2000
    3.2527    1.3100    0.0408 O   0  0  0  0  0  0  0  0  0  0  0  0
    2.5856    0.1455   -0.1654 C   0  0  0  0  0  0  0  0  0  0  0  0
    1.6431    0.0259   -0.9338 O   0  0  0  0  0  0  0  0  0  0  0  0
    3.1535   -0.9006    0.6472 C   0  0  0  0  0  0  0  0  0  0  0  0
    4.1781   -0.7133    1.4647 N   0  0  0  0  0  0  0  0  0  0  0  0
    4.4047   -1.9386    2.0416 C   0  0  0  0  0  0  0  0  0  0  0  0
    3.5130   -2.8741    1.5717 C   0  0  0  0  0  0  0  0  0  0  0  0
    2.7210   -2.2007    0.6840 N   0  0  0  0  0  0  0  0  0  0  0  0
    1.9504   -2.5703    0.1407 H   0  0  0  0  0  0  0  0  0  0  0  0
    3.9623    1.1327    0.7030 H   0  0  0  0  0  0  0  0  0  0  0  0
    5.1978   -2.0839    2.7651 H   0  0  0  0  0  0  0  0  0  0  0  0
    3.3779   -3.9252    1.7848 H   0  0  0  0  0  0  0  0  0  0  0  0
  1  2  1  0  0  0  0
  1 10  1  0  0  0  0
  2  4  1  0  0  0  0
  2  3  2  0  0  0  0
  4  5  2  0  0  0  0
  4  8  1  0  0  0  0
  5  6  1  0  0  0  0
  6  7  2  0  0  0  0
  6 11  1  0  0  0  0
  7  8  1  0  0  0  0
  7 12  1  0  0  0  0
  8  9  1  0  0  0  0
M  END
$$$$