499475 499474
 OpenBabel01211413193D

 29 30  0  0  0  0  0  0  0  0999 V2000
    3.7630   -5.7963   -0.2259 O   0  0  0  0  0  0  0  0  0  0  0  0
    4.3729   -4.5789   -0.2863 C   0  0  0  0  0  0  0  0  0  0  0  0
    3.8770   -3.4833    0.4107 C   0  0  0  0  0  0  0  0  0  0  0  0
    4.5363   -2.2534    0.3163 C   0  0  0  0  0  0  0  0  0  0  0  0
    5.6944   -2.1160   -0.4635 C   0  0  0  0  0  0  0  0  0  0  0  0
    6.1652   -3.2319   -1.1698 C   0  0  0  0  0  0  0  0  0  0  0  0
    5.5091   -4.4621   -1.0755 C   0  0  0  0  0  0  0  0  0  0  0  0
    6.3302   -0.7921   -0.5622 C   0  0  0  0  0  0  0  0  0  0  0  0
    7.6483   -0.5975   -0.7323 C   0  0  0  0  0  0  0  0  0  0  0  0
    8.2919    0.7231   -0.8315 C   0  0  0  0  0  0  0  0  0  0  0  0
    9.6146    0.8613   -0.3880 C   0  0  0  0  0  0  0  0  0  0  0  0
   10.2719    2.0843   -0.5029 C   0  0  0  0  0  0  0  0  0  0  0  0
   11.5576    2.1590   -0.0526 O   0  0  0  0  0  0  0  0  0  0  0  0
    9.6371    3.1859   -1.0623 C   0  0  0  0  0  0  0  0  0  0  0  0
    8.3316    3.0472   -1.5161 C   0  0  0  0  0  0  0  0  0  0  0  0
    7.6567    1.8303   -1.4137 C   0  0  0  0  0  0  0  0  0  0  0  0
    7.7371    4.1428   -2.0726 O   0  0  0  0  0  0  0  0  0  0  0  0
    2.9933   -5.7288    0.3620 H   0  0  0  0  0  0  0  0  0  0  0  0
    2.9868   -3.5622    1.0259 H   0  0  0  0  0  0  0  0  0  0  0  0
    4.1400   -1.4022    0.8659 H   0  0  0  0  0  0  0  0  0  0  0  0
    7.0398   -3.1584   -1.8110 H   0  0  0  0  0  0  0  0  0  0  0  0
    5.8825   -5.3234   -1.6225 H   0  0  0  0  0  0  0  0  0  0  0  0
    5.6545    0.0530   -0.4581 H   0  0  0  0  0  0  0  0  0  0  0  0
    8.3285   -1.4451   -0.7784 H   0  0  0  0  0  0  0  0  0  0  0  0
   10.1434    0.0206    0.0548 H   0  0  0  0  0  0  0  0  0  0  0  0
   11.8858    3.0607   -0.2066 H   0  0  0  0  0  0  0  0  0  0  0  0
   10.1370    4.1435   -1.1585 H   0  0  0  0  0  0  0  0  0  0  0  0
    6.6460    1.7376   -1.7979 H   0  0  0  0  0  0  0  0  0  0  0  0
    6.8383    3.9019   -2.3516 H   0  0  0  0  0  0  0  0  0  0  0  0
  1  2  1  0  0  0  0
  1 18  1  0  0  0  0
  2  3  2  0  0  0  0
  2  7  1  0  0  0  0
  3  4  1  0  0  0  0
  3 19  1  0  0  0  0
  4  5  2  0  0  0  0
  4 20  1  0  0  0  0
  5  6  1  0  0  0  0
  5  8  1  0  0  0  0
  6  7  2  0  0  0  0
  6 21  1  0  0  0  0
  7 22  1  0  0  0  0
  8  9  2  3  0  0  0
  8 23  1  0  0  0  0
  9 10  1  0  0  0  0
  9 24  1  0  0  0  0
 10 16  1  0  0  0  0
 10 11  2  0  0  0  0
 11 12  1  0  0  0  0
 11 25  1  0  0  0  0
 12 14  2  0  0  0  0
 12 13  1  0  0  0  0
 13 26  1  0  0  0  0
 14 15  1  0  0  0  0
 14 27  1  0  0  0  0
 15 16  2  0  0  0  0
 15 17  1  0  0  0  0
 16 28  1  0  0  0  0
 17 29  1  0  0  0  0
M  END
$$$$