502642 502641
 OpenBabel01211413203D

 18 17  0  0  1  0  0  0  0  0999 V2000
    4.5535    1.0919   -1.4312 C   0  0  0  0  0  0  0  0  0  0  0  0
    3.3524    0.7058   -0.9747 C   0  0  0  0  0  0  0  0  0  0  0  0
    3.0002    0.3374    0.4508 C   0  0  3  0  0  0  0  0  0  0  0  0
    2.4229   -1.1032    0.6070 C   0  0  3  0  0  0  0  0  0  0  0  0
    1.1337   -1.3419   -0.1382 C   0  0  0  0  0  0  0  0  0  0  0  0
    0.8849   -2.3044   -1.0378 C   0  0  0  0  0  0  0  0  0  0  0  0
    3.4267   -2.0567    0.2308 O   0  0  0  0  0  0  0  0  0  0  0  0
    4.1641    0.4562    1.2756 O   0  0  0  0  0  0  0  0  0  0  0  0
    4.6968    1.3496   -2.4758 H   0  0  0  0  0  0  0  0  0  0  0  0
    5.4130    1.1823   -0.7734 H   0  0  0  0  0  0  0  0  0  0  0  0
    2.5295    0.6661   -1.6863 H   0  0  0  0  0  0  0  0  0  0  0  0
    2.2673    1.0646    0.8191 H   0  0  0  0  0  0  0  0  0  0  0  0
    2.2359   -1.2797    1.6730 H   0  0  0  0  0  0  0  0  0  0  0  0
    0.3227   -0.6596    0.1135 H   0  0  0  0  0  0  0  0  0  0  0  0
    1.6308   -3.0416   -1.3184 H   0  0  0  0  0  0  0  0  0  0  0  0
   -0.0937   -2.3896   -1.5016 H   0  0  0  0  0  0  0  0  0  0  0  0
    3.6176   -1.8973   -0.7108 H   0  0  0  0  0  0  0  0  0  0  0  0
    4.6246   -0.4018    1.1995 H   0  0  0  0  0  0  0  0  0  0  0  0
  1  2  2  0  0  0  0
  1  9  1  0  0  0  0
  1 10  1  0  0  0  0
  2  3  1  0  0  0  0
  2 11  1  0  0  0  0
  3  8  1  0  0  0  0
  3  4  1  0  0  0  0
  3 12  1  0  0  0  0
  4  7  1  0  0  0  0
  4  5  1  0  0  0  0
  4 13  1  0  0  0  0
  5  6  2  0  0  0  0
  5 14  1  0  0  0  0
  6 15  1  0  0  0  0
  6 16  1  0  0  0  0
  7 17  1  0  0  0  0
  8 18  1  0  0  0  0
M  END
$$$$