917978 917977
 OpenBabel01211413353D

 18 19  0  0  0  0  0  0  0  0999 V2000
    1.4661    0.4090    1.1837 S   0  0  0  0  0  0  0  0  0  0  0  0
    2.7926    0.1784    0.1960 C   0  0  0  0  0  0  0  0  0  0  0  0
    3.4682   -1.1781    0.0213 C   0  0  0  0  0  0  0  0  0  0  0  0
    4.2565   -1.3940   -1.1414 O   0  0  0  0  0  0  0  0  0  0  0  0
    4.8616   -0.2692   -1.6322 C   0  0  0  0  0  0  0  0  0  0  0  0
    4.4583    1.0299   -1.3099 C   0  0  0  0  0  0  0  0  0  0  0  0
    3.3884    1.2334   -0.4344 N   0  0  0  0  0  0  0  0  0  0  0  0
    5.0942    2.1291   -1.8868 C   0  0  0  0  0  0  0  0  0  0  0  0
    6.1406    1.9263   -2.7890 C   0  0  0  0  0  0  0  0  0  0  0  0
    6.5380    0.6302   -3.1210 C   0  0  0  0  0  0  0  0  0  0  0  0
    5.8942   -0.4674   -2.5474 C   0  0  0  0  0  0  0  0  0  0  0  0
    2.7040   -1.9639    0.0354 H   0  0  0  0  0  0  0  0  0  0  0  0
    4.1114   -1.3445    0.8956 H   0  0  0  0  0  0  0  0  0  0  0  0
    3.0206    2.1638   -0.2794 H   0  0  0  0  0  0  0  0  0  0  0  0
    4.7886    3.1428   -1.6449 H   0  0  0  0  0  0  0  0  0  0  0  0
    6.6426    2.7791   -3.2397 H   0  0  0  0  0  0  0  0  0  0  0  0
    7.3459    0.4734   -3.8317 H   0  0  0  0  0  0  0  0  0  0  0  0
    6.1955   -1.4765   -2.8148 H   0  0  0  0  0  0  0  0  0  0  0  0
  1  2  2  0  0  0  0
  2  3  1  0  0  0  0
  2  7  1  0  0  0  0
  3  4  1  0  0  0  0
  3 12  1  0  0  0  0
  3 13  1  0  0  0  0
  4  5  1  0  0  0  0
  5 11  1  0  0  0  0
  5  6  2  0  0  0  0
  6  8  1  0  0  0  0
  6  7  1  0  0  0  0
  7 14  1  0  0  0  0
  8  9  2  0  0  0  0
  8 15  1  0  0  0  0
  9 10  1  0  0  0  0
  9 16  1  0  0  0  0
 10 11  2  0  0  0  0
 10 17  1  0  0  0  0
 11 18  1  0  0  0  0
M  END
$$$$