490237 490236
 OpenBabel01211413183D

 18 17  0  0  0  0  0  0  0  0999 V2000
    0.8485    0.1153    0.0469 C   0  0  0  0  0  0  0  0  0  0  0  0
    2.3252   -0.0804    0.3515 C   0  0  0  0  0  0  0  0  0  0  0  0
    3.0778   -0.6406   -0.8559 C   0  0  0  0  0  0  0  0  0  0  0  0
    4.5626   -0.8353   -0.5421 C   0  0  0  0  0  0  0  0  0  0  0  0
    5.3074   -1.3704   -1.7315 C   0  0  0  0  0  0  0  0  0  0  0  0
    5.9636   -2.5371   -1.7438 C   0  0  0  0  0  0  0  0  0  0  0  0
    0.3311    0.5183    0.9231 H   0  0  0  0  0  0  0  0  0  0  0  0
    0.3741   -0.8342   -0.2209 H   0  0  0  0  0  0  0  0  0  0  0  0
    0.7084    0.8159   -0.7824 H   0  0  0  0  0  0  0  0  0  0  0  0
    2.4290   -0.7617    1.2041 H   0  0  0  0  0  0  0  0  0  0  0  0
    2.7612    0.8805    0.6488 H   0  0  0  0  0  0  0  0  0  0  0  0
    2.9638    0.0431   -1.7068 H   0  0  0  0  0  0  0  0  0  0  0  0
    2.6327   -1.5986   -1.1532 H   0  0  0  0  0  0  0  0  0  0  0  0
    4.6726   -1.5076    0.3177 H   0  0  0  0  0  0  0  0  0  0  0  0
    5.0104    0.1239   -0.2559 H   0  0  0  0  0  0  0  0  0  0  0  0
    5.3129   -0.7530   -2.6278 H   0  0  0  0  0  0  0  0  0  0  0  0
    5.9930   -3.1856   -0.8737 H   0  0  0  0  0  0  0  0  0  0  0  0
    6.4898   -2.8688   -2.6338 H   0  0  0  0  0  0  0  0  0  0  0  0
  1  2  1  0  0  0  0
  1  7  1  0  0  0  0
  1  8  1  0  0  0  0
  1  9  1  0  0  0  0
  2  3  1  0  0  0  0
  2 10  1  0  0  0  0
  2 11  1  0  0  0  0
  3  4  1  0  0  0  0
  3 12  1  0  0  0  0
  3 13  1  0  0  0  0
  4  5  1  0  0  0  0
  4 14  1  0  0  0  0
  4 15  1  0  0  0  0
  5  6  2  0  0  0  0
  5 16  1  0  0  0  0
  6 17  1  0  0  0  0
  6 18  1  0  0  0  0
M  END
$$$$