30316930 30316929
 OpenBabel01211414063D

 28 29  0  0  1  0  0  0  0  0999 V2000
    4.8961   -2.0338   -2.0889 C   0  0  0  0  0  0  0  0  0  0  0  0
    4.4717   -1.0675   -1.0176 C   0  0  0  0  0  0  0  0  0  0  0  0
    5.2060    0.1206   -0.8801 C   0  0  0  0  0  0  0  0  0  0  0  0
    4.8308    1.0461    0.0790 C   0  0  0  0  0  0  0  0  0  0  0  0
    3.7808    0.8808    0.9024 N   0  0  0  0  0  0  0  0  0  0  0  0
    3.0736   -0.2610    0.7497 C   0  0  0  0  0  0  0  0  0  0  0  0
    3.3503   -1.2651   -0.1869 C   0  0  0  0  0  0  0  0  0  0  0  0
    2.4435   -2.4867   -0.1979 C   0  0  3  0  0  0  0  0  0  0  0  0
    3.0991   -3.6684    0.5484 C   0  0  0  0  0  0  0  0  0  0  0  0
    2.3251   -4.9667    0.3278 C   0  0  0  0  0  0  0  0  0  0  0  0
    2.2136   -5.3084   -1.1593 C   0  0  0  0  0  0  0  0  0  0  0  0
    1.8420   -4.1254   -2.0043 C   0  0  0  0  0  0  0  0  0  0  0  0
    1.9266   -2.8587   -1.5687 C   0  0  0  0  0  0  0  0  0  0  0  0
    5.9355   -1.8568   -2.3880 H   0  0  0  0  0  0  0  0  0  0  0  0
    4.2684   -1.9128   -2.9769 H   0  0  0  0  0  0  0  0  0  0  0  0
    4.8505   -3.0691   -1.7442 H   0  0  0  0  0  0  0  0  0  0  0  0
    6.0647    0.3274   -1.5115 H   0  0  0  0  0  0  0  0  0  0  0  0
    5.3836    1.9716    0.2099 H   0  0  0  0  0  0  0  0  0  0  0  0
    2.2346   -0.3502    1.4366 H   0  0  0  0  0  0  0  0  0  0  0  0
    1.5340   -2.2260    0.3644 H   0  0  0  0  0  0  0  0  0  0  0  0
    4.1371   -3.8170    0.2284 H   0  0  0  0  0  0  0  0  0  0  0  0
    3.1433   -3.4464    1.6222 H   0  0  0  0  0  0  0  0  0  0  0  0
    1.3201   -4.8658    0.7574 H   0  0  0  0  0  0  0  0  0  0  0  0
    2.8149   -5.7905    0.8595 H   0  0  0  0  0  0  0  0  0  0  0  0
    1.4623   -6.0957   -1.2875 H   0  0  0  0  0  0  0  0  0  0  0  0
    3.1668   -5.7096   -1.5230 H   0  0  0  0  0  0  0  0  0  0  0  0
    1.4817   -4.3247   -3.0104 H   0  0  0  0  0  0  0  0  0  0  0  0
    1.6109   -2.0477   -2.2223 H   0  0  0  0  0  0  0  0  0  0  0  0
  1  2  1  0  0  0  0
  1 14  1  0  0  0  0
  1 15  1  0  0  0  0
  1 16  1  0  0  0  0
  2  3  2  0  0  0  0
  2  7  1  0  0  0  0
  3  4  1  0  0  0  0
  3 17  1  0  0  0  0
  4  5  2  0  0  0  0
  4 18  1  0  0  0  0
  5  6  1  0  0  0  0
  6  7  2  0  0  0  0
  6 19  1  0  0  0  0
  7  8  1  0  0  0  0
  8  9  1  0  0  0  0
  8 13  1  0  0  0  0
  8 20  1  0  0  0  0
  9 10  1  0  0  0  0
  9 21  1  0  0  0  0
  9 22  1  0  0  0  0
 10 11  1  0  0  0  0
 10 23  1  0  0  0  0
 10 24  1  0  0  0  0
 11 12  1  0  0  0  0
 11 25  1  0  0  0  0
 11 26  1  0  0  0  0
 12 13  2  0  0  0  0
 12 27  1  0  0  0  0
 13 28  1  0  0  0  0
M  END
$$$$