486215 486214
 OpenBabel01211413183D

  6  5  0  0  0  0  0  0  0  0999 V2000
    1.0120    0.0319    0.0563 F   0  0  0  0  0  0  0  0  0  0  0  0
    2.3602    0.0282    0.0557 C   0  0  0  0  0  0  0  0  0  0  0  0
    3.0256    1.1648    0.2534 C   0  0  0  0  0  0  0  0  0  0  0  0
    3.0369   -1.1201   -0.1441 F   0  0  0  0  0  0  0  0  0  0  0  0
    2.4927    2.0926    0.4148 H   0  0  0  0  0  0  0  0  0  0  0  0
    4.1091    1.1727    0.2548 H   0  0  0  0  0  0  0  0  0  0  0  0
  1  2  1  0  0  0  0
  2  4  1  0  0  0  0
  2  3  2  0  0  0  0
  3  5  1  0  0  0  0
  3  6  1  0  0  0  0
M  END
$$$$