491597 491596
 OpenBabel01211413183D

 30 30  0  0  1  0  0  0  0  0999 V2000
    1.1072   -0.2188   -0.4856 C   0  0  0  0  0  0  0  0  0  0  0  0
    2.5627   -0.0582   -0.1425 C   0  0  0  0  0  0  0  0  0  0  0  0
    3.1296    1.1581   -0.0415 C   0  0  0  0  0  0  0  0  0  0  0  0
    4.5928    1.3834    0.2129 C   0  0  0  0  0  0  0  0  0  0  0  0
    5.4816    0.1437   -0.0171 C   0  0  1  0  0  0  0  0  0  0  0  0
    6.3702    0.2752    0.6190 H   0  0  0  0  0  0  0  0  0  0  0  0
    4.7792   -1.1039    0.5541 C   0  0  0  0  0  0  0  0  0  0  0  0
    3.3547   -1.3311    0.0385 C   0  0  1  0  0  0  0  0  0  0  0  0
    3.3839   -1.8816   -0.9063 H   0  0  0  0  0  0  0  0  0  0  0  0
    2.6786   -2.1654    0.9786 O   0  0  0  0  0  0  0  0  0  0  0  0
    6.0398   -0.0049   -1.4702 C   0  0  0  0  0  0  0  0  0  0  0  0
    6.7093   -1.2696   -1.5772 O   0  0  0  0  0  0  0  0  0  0  0  0
    5.0014    0.0314   -2.5935 C   0  0  0  0  0  0  0  0  0  0  0  0
    7.0996    1.0748   -1.7570 C   0  0  0  0  0  0  0  0  0  0  0  0
    0.9954   -0.8426   -1.3784 H   0  0  0  0  0  0  0  0  0  0  0  0
    0.6258    0.7429   -0.6928 H   0  0  0  0  0  0  0  0  0  0  0  0
    0.5642   -0.6890    0.3402 H   0  0  0  0  0  0  0  0  0  0  0  0
    2.5230    2.0523   -0.1669 H   0  0  0  0  0  0  0  0  0  0  0  0
    4.9342    2.2248   -0.3978 H   0  0  0  0  0  0  0  0  0  0  0  0
    4.6951    1.7057    1.2573 H   0  0  0  0  0  0  0  0  0  0  0  0
    4.7446   -0.9969    1.6486 H   0  0  0  0  0  0  0  0  0  0  0  0
    5.3747   -2.0104    0.3928 H   0  0  0  0  0  0  0  0  0  0  0  0
    2.5056   -1.6193    1.7641 H   0  0  0  0  0  0  0  0  0  0  0  0
    7.4304   -1.2871   -0.9247 H   0  0  0  0  0  0  0  0  0  0  0  0
    4.4358    0.9669   -2.6074 H   0  0  0  0  0  0  0  0  0  0  0  0
    4.3073   -0.8090   -2.5368 H   0  0  0  0  0  0  0  0  0  0  0  0
    5.4926   -0.0709   -3.5691 H   0  0  0  0  0  0  0  0  0  0  0  0
    6.6696    2.0792   -1.7947 H   0  0  0  0  0  0  0  0  0  0  0  0
    7.6000    0.8823   -2.7132 H   0  0  0  0  0  0  0  0  0  0  0  0
    7.8877    1.0628   -0.9957 H   0  0  0  0  0  0  0  0  0  0  0  0
  1  2  1  0  0  0  0
  1 15  1  0  0  0  0
  1 16  1  0  0  0  0
  1 17  1  0  0  0  0
  2  8  1  0  0  0  0
  2  3  2  0  0  0  0
  3  4  1  0  0  0  0
  3 18  1  0  0  0  0
  4  5  1  0  0  0  0
  4 19  1  0  0  0  0
  4 20  1  0  0  0  0
  5  7  1  0  0  0  0
  5 11  1  0  0  0  0
  5  6  1  1  0  0  0
  7  8  1  0  0  0  0
  7 21  1  0  0  0  0
  7 22  1  0  0  0  0
  8 10  1  0  0  0  0
  8  9  1  6  0  0  0
 10 23  1  0  0  0  0
 11 14  1  0  0  0  0
 11 13  1  0  0  0  0
 11 12  1  0  0  0  0
 12 24  1  0  0  0  0
 13 25  1  0  0  0  0
 13 26  1  0  0  0  0
 13 27  1  0  0  0  0
 14 28  1  0  0  0  0
 14 29  1  0  0  0  0
 14 30  1  0  0  0  0
M  END
$$$$