720766 720765
 OpenBabel01211413323D

 33 34  0  0  0  0  0  0  0  0999 V2000
    0.9509   -0.0386    0.0551 C   0  0  0  0  0  0  0  0  0  0  0  0
    2.4518   -0.0457    0.0063 C   0  0  0  0  0  0  0  0  0  0  0  0
    3.1563   -1.2480   -0.1312 C   0  0  0  0  0  0  0  0  0  0  0  0
    4.5544   -1.2499   -0.2069 C   0  0  0  0  0  0  0  0  0  0  0  0
    5.3144   -2.5483   -0.3633 C   0  0  0  0  0  0  0  0  0  0  0  0
    6.1699   -2.6511   -1.6483 C   0  0  0  0  0  0  0  0  0  0  0  0
    5.3453   -2.3614   -2.9161 C   0  0  0  0  0  0  0  0  0  0  0  0
    6.6917   -4.1007   -1.7445 C   0  0  0  0  0  0  0  0  0  0  0  0
    7.3800   -1.6983   -1.6213 C   0  0  0  0  0  0  0  0  0  0  0  0
    8.5214   -2.0419   -1.9057 O   0  0  0  0  0  0  0  0  0  0  0  0
    7.0349   -0.3924   -1.4941 O   0  0  0  0  0  0  0  0  0  0  0  0
    6.7062   -0.0681   -0.2282 C   0  0  0  0  0  0  0  0  0  0  0  0
    7.4686    0.1897    0.6840 O   0  0  0  0  0  0  0  0  0  0  0  0
    5.2379   -0.0239   -0.1343 C   0  0  0  0  0  0  0  0  0  0  0  0
    4.5567    1.1947    0.0043 C   0  0  0  0  0  0  0  0  0  0  0  0
    3.1567    1.1663    0.0717 C   0  0  0  0  0  0  0  0  0  0  0  0
    5.2884    2.5045    0.0726 C   0  0  0  0  0  0  0  0  0  0  0  0
    0.5466   -1.0546    0.1154 H   0  0  0  0  0  0  0  0  0  0  0  0
    0.5499    0.4335   -0.8474 H   0  0  0  0  0  0  0  0  0  0  0  0
    0.6021    0.5103    0.9357 H   0  0  0  0  0  0  0  0  0  0  0  0
    2.6079   -2.1873   -0.1845 H   0  0  0  0  0  0  0  0  0  0  0  0
    5.9477   -2.6803    0.5253 H   0  0  0  0  0  0  0  0  0  0  0  0
    4.5982   -3.3809   -0.3396 H   0  0  0  0  0  0  0  0  0  0  0  0
    4.9934   -1.3246   -2.9535 H   0  0  0  0  0  0  0  0  0  0  0  0
    4.4684   -3.0154   -2.9763 H   0  0  0  0  0  0  0  0  0  0  0  0
    5.9465   -2.5185   -3.8192 H   0  0  0  0  0  0  0  0  0  0  0  0
    7.3145   -4.3559   -0.8796 H   0  0  0  0  0  0  0  0  0  0  0  0
    7.3025   -4.2483   -2.6430 H   0  0  0  0  0  0  0  0  0  0  0  0
    5.8646   -4.8186   -1.7887 H   0  0  0  0  0  0  0  0  0  0  0  0
    2.6012    2.0981    0.1727 H   0  0  0  0  0  0  0  0  0  0  0  0
    4.5933    3.3506    0.0807 H   0  0  0  0  0  0  0  0  0  0  0  0
    5.9368    2.6248   -0.8015 H   0  0  0  0  0  0  0  0  0  0  0  0
    5.8903    2.5569    0.9848 H   0  0  0  0  0  0  0  0  0  0  0  0
  1  2  1  0  0  0  0
  1 18  1  0  0  0  0
  1 19  1  0  0  0  0
  1 20  1  0  0  0  0
  2  3  2  0  0  0  0
  2 16  1  0  0  0  0
  3  4  1  0  0  0  0
  3 21  1  0  0  0  0
  4  5  1  0  0  0  0
  4 14  2  0  0  0  0
  5  6  1  0  0  0  0
  5 22  1  0  0  0  0
  5 23  1  0  0  0  0
  6  9  1  0  0  0  0
  6  8  1  0  0  0  0
  6  7  1  0  0  0  0
  7 24  1  0  0  0  0
  7 25  1  0  0  0  0
  7 26  1  0  0  0  0
  8 27  1  0  0  0  0
  8 28  1  0  0  0  0
  8 29  1  0  0  0  0
  9 11  1  0  0  0  0
  9 10  2  0  0  0  0
 11 12  1  0  0  0  0
 12 14  1  0  0  0  0
 12 13  2  0  0  0  0
 14 15  1  0  0  0  0
 15 16  2  0  0  0  0
 15 17  1  0  0  0  0
 16 30  1  0  0  0  0
 17 31  1  0  0  0  0
 17 32  1  0  0  0  0
 17 33  1  0  0  0  0
M  END
$$$$