1100590 1100589
 OpenBabel01211413393D

 61 63  0  0  1  0  0  0  0  0999 V2000
    6.0700    1.7938   -1.0151 O   0  0  0  0  0  0  0  0  0  0  0  0
    5.6466    1.1010   -0.0778 C   0  0  0  0  0  0  0  0  0  0  0  0
    5.2046    1.8316    1.2365 C   0  0  0  0  0  0  0  0  0  0  0  0
    6.1463    3.0665    1.4528 C   0  0  0  0  0  0  0  0  0  0  0  0
    6.0159    3.8995    2.7510 C   0  0  0  0  0  0  0  0  0  0  0  0
    6.4375    3.1960    4.0215 C   0  0  0  0  0  0  0  0  0  0  0  0
    7.7583    2.8006    4.2195 C   0  0  0  0  0  0  0  0  0  0  0  0
    8.0561    1.9649    5.2965 C   0  0  0  0  0  0  0  0  0  0  0  0
    7.0324    1.5542    6.1425 C   0  0  0  0  0  0  0  0  0  0  0  0
    5.7567    2.0374    5.9079 C   0  0  0  0  0  0  0  0  0  0  0  0
    5.4465    2.8647    4.8851 N   0  0  0  0  0  0  0  0  0  0  0  0
    3.7466    2.2896    1.0687 C   0  0  0  0  0  0  0  0  0  0  0  0
    5.2545    0.9132    2.4341 C   0  0  0  0  0  0  0  0  0  0  0  0
    5.5015   -0.4494   -0.2701 C   0  0  3  0  0  0  0  0  0  0  0  0
    5.5744   -0.7835   -1.8086 C   0  0  0  0  0  0  0  0  0  0  0  0
    4.3223   -0.4767   -2.6327 C   0  0  0  0  0  0  0  0  0  0  0  0
    4.5237   -0.9009   -4.0797 C   0  0  0  0  0  0  0  0  0  0  0  0
    4.3137   -2.2167   -4.4811 C   0  0  0  0  0  0  0  0  0  0  0  0
    4.5563   -2.5742   -5.8074 C   0  0  0  0  0  0  0  0  0  0  0  0
    5.0105   -1.6096   -6.7014 C   0  0  0  0  0  0  0  0  0  0  0  0
    5.2056   -0.3275   -6.2220 C   0  0  0  0  0  0  0  0  0  0  0  0
    4.9714    0.0440   -4.9427 N   0  0  0  0  0  0  0  0  0  0  0  0
    6.6696   -1.2735    0.3566 C   0  0  0  0  0  0  0  0  0  0  0  0
    6.6572   -1.8991    1.7675 C   0  0  0  0  0  0  0  0  0  0  0  0
    5.4596   -2.6035    2.3794 C   0  0  0  0  0  0  0  0  0  0  0  0
    5.6952   -3.5185    3.4104 C   0  0  0  0  0  0  0  0  0  0  0  0
    4.6434   -3.9116    4.2363 C   0  0  0  0  0  0  0  0  0  0  0  0
    3.3849   -3.3674    4.0368 C   0  0  0  0  0  0  0  0  0  0  0  0
    3.2180   -2.5028    2.9698 C   0  0  0  0  0  0  0  0  0  0  0  0
    4.2157   -2.1437    2.1242 N   0  0  0  0  0  0  0  0  0  0  0  0
    5.9841    3.7660    0.6193 H   0  0  0  0  0  0  0  0  0  0  0  0
    7.1874    2.7340    1.3515 H   0  0  0  0  0  0  0  0  0  0  0  0
    4.9881    4.2662    2.8565 H   0  0  0  0  0  0  0  0  0  0  0  0
    6.6418    4.7956    2.6509 H   0  0  0  0  0  0  0  0  0  0  0  0
    8.5374    3.0944    3.5262 H   0  0  0  0  0  0  0  0  0  0  0  0
    9.0722    1.6167    5.4586 H   0  0  0  0  0  0  0  0  0  0  0  0
    7.2194    0.8686    6.9613 H   0  0  0  0  0  0  0  0  0  0  0  0
    4.9189    1.7407    6.5326 H   0  0  0  0  0  0  0  0  0  0  0  0
    3.6395    3.0104    0.2530 H   0  0  0  0  0  0  0  0  0  0  0  0
    3.3686    2.7616    1.9832 H   0  0  0  0  0  0  0  0  0  0  0  0
    3.0891    1.4405    0.8477 H   0  0  0  0  0  0  0  0  0  0  0  0
    4.6862    1.2921    3.2807 H   0  0  0  0  0  0  0  0  0  0  0  0
    6.2805    0.7196    2.7438 H   0  0  0  0  0  0  0  0  0  0  0  0
    4.7651   -0.0142    2.2024 H   0  0  0  0  0  0  0  0  0  0  0  0
    4.5205   -0.7661    0.0858 H   0  0  0  0  0  0  0  0  0  0  0  0
    5.7661   -1.8575   -1.9342 H   0  0  0  0  0  0  0  0  0  0  0  0
    6.4419   -0.2783   -2.2563 H   0  0  0  0  0  0  0  0  0  0  0  0
    4.0845    0.5907   -2.6005 H   0  0  0  0  0  0  0  0  0  0  0  0
    3.4584   -1.0137   -2.2256 H   0  0  0  0  0  0  0  0  0  0  0  0
    3.9712   -2.9671   -3.7730 H   0  0  0  0  0  0  0  0  0  0  0  0
    4.3947   -3.5960   -6.1402 H   0  0  0  0  0  0  0  0  0  0  0  0
    5.2131   -1.8538   -7.7357 H   0  0  0  0  0  0  0  0  0  0  0  0
    5.5648    0.4633   -6.8772 H   0  0  0  0  0  0  0  0  0  0  0  0
    7.5770   -0.6553    0.2985 H   0  0  0  0  0  0  0  0  0  0  0  0
    6.8789   -2.1324   -0.2937 H   0  0  0  0  0  0  0  0  0  0  0  0
    7.0001   -1.1577    2.4945 H   0  0  0  0  0  0  0  0  0  0  0  0
    7.4718   -2.6400    1.7515 H   0  0  0  0  0  0  0  0  0  0  0  0
    6.6982   -3.8770    3.6156 H   0  0  0  0  0  0  0  0  0  0  0  0
    4.8201   -4.5957    5.0612 H   0  0  0  0  0  0  0  0  0  0  0  0
    2.5569   -3.5977    4.6997 H   0  0  0  0  0  0  0  0  0  0  0  0
    2.2577   -2.0314    2.7784 H   0  0  0  0  0  0  0  0  0  0  0  0
  1  2  2  0  0  0  0
  2 14  1  0  0  0  0
  2  3  1  0  0  0  0
  3 13  1  0  0  0  0
  3 12  1  0  0  0  0
  3  4  1  0  0  0  0
  4  5  1  0  0  0  0
  4 31  1  0  0  0  0
  4 32  1  0  0  0  0
  5  6  1  0  0  0  0
  5 33  1  0  0  0  0
  5 34  1  0  0  0  0
  6  7  2  0  0  0  0
  6 11  1  0  0  0  0
  7  8  1  0  0  0  0
  7 35  1  0  0  0  0
  8  9  2  0  0  0  0
  8 36  1  0  0  0  0
  9 10  1  0  0  0  0
  9 37  1  0  0  0  0
 10 11  2  0  0  0  0
 10 38  1  0  0  0  0
 12 39  1  0  0  0  0
 12 40  1  0  0  0  0
 12 41  1  0  0  0  0
 13 42  1  0  0  0  0
 13 43  1  0  0  0  0
 13 44  1  0  0  0  0
 14 23  1  0  0  0  0
 14 15  1  0  0  0  0
 14 45  1  0  0  0  0
 15 16  1  0  0  0  0
 15 46  1  0  0  0  0
 15 47  1  0  0  0  0
 16 17  1  0  0  0  0
 16 48  1  0  0  0  0
 16 49  1  0  0  0  0
 17 18  2  0  0  0  0
 17 22  1  0  0  0  0
 18 19  1  0  0  0  0
 18 50  1  0  0  0  0
 19 20  2  0  0  0  0
 19 51  1  0  0  0  0
 20 21  1  0  0  0  0
 20 52  1  0  0  0  0
 21 22  2  0  0  0  0
 21 53  1  0  0  0  0
 23 24  1  0  0  0  0
 23 54  1  0  0  0  0
 23 55  1  0  0  0  0
 24 25  1  0  0  0  0
 24 56  1  0  0  0  0
 24 57  1  0  0  0  0
 25 26  2  0  0  0  0
 25 30  1  0  0  0  0
 26 27  1  0  0  0  0
 26 58  1  0  0  0  0
 27 28  2  0  0  0  0
 27 59  1  0  0  0  0
 28 29  1  0  0  0  0
 28 60  1  0  0  0  0
 29 30  2  0  0  0  0
 29 61  1  0  0  0  0
M  END
$$$$