29819111 29819110
 OpenBabel01211414063D

 15 15  0  0  0  0  0  0  0  0999 V2000
    1.8470   -0.0531   -1.2042 Cl  0  0  0  0  0  0  0  0  0  0  0  0
    3.2517    0.4359   -0.2859 C   0  0  0  0  0  0  0  0  0  0  0  0
    3.7562    1.5558   -0.3350 O   0  0  0  0  0  0  0  0  0  0  0  0
    3.8438   -0.6054    0.6016 C   0  0  0  0  0  0  0  0  0  0  0  0
    4.9274   -0.3374    1.3420 C   0  0  0  0  0  0  0  0  0  0  0  0
    5.4913   -1.3307    2.1879 C   0  0  0  0  0  0  0  0  0  0  0  0
    6.6085   -1.2394    3.0098 C   0  0  0  0  0  0  0  0  0  0  0  0
    6.7785   -2.4851    3.6581 C   0  0  0  0  0  0  0  0  0  0  0  0
    5.7600   -3.2830    3.2062 C   0  0  0  0  0  0  0  0  0  0  0  0
    4.9832   -2.6058    2.3263 O   0  0  0  0  0  0  0  0  0  0  0  0
    3.3560   -1.5733    0.6116 H   0  0  0  0  0  0  0  0  0  0  0  0
    5.3994    0.6419    1.3132 H   0  0  0  0  0  0  0  0  0  0  0  0
    7.2305   -0.3613    3.1234 H   0  0  0  0  0  0  0  0  0  0  0  0
    7.5466   -2.7643    4.3652 H   0  0  0  0  0  0  0  0  0  0  0  0
    5.4632   -4.3039    3.4026 H   0  0  0  0  0  0  0  0  0  0  0  0
  1  2  1  0  0  0  0
  2  4  1  0  0  0  0
  2  3  2  0  0  0  0
  4  5  2  3  0  0  0
  4 11  1  0  0  0  0
  5  6  1  0  0  0  0
  5 12  1  0  0  0  0
  6  7  2  0  0  0  0
  6 10  1  0  0  0  0
  7  8  1  0  0  0  0
  7 13  1  0  0  0  0
  8  9  2  0  0  0  0
  8 14  1  0  0  0  0
  9 10  1  0  0  0  0
  9 15  1  0  0  0  0
M  END
$$$$