587208 587207
 OpenBabel01211413273D

 37 38  0  0  1  0  0  0  0  0999 V2000
   -0.5084   -1.8992    0.0055 Cl  0  0  0  0  0  0  0  0  0  0  0  0
    0.6968   -2.1152   -1.2061 C   0  0  0  0  0  0  0  0  0  0  0  0
    0.5222   -1.5267   -2.4561 C   0  0  0  0  0  0  0  0  0  0  0  0
    1.5032   -1.6850   -3.4309 C   0  0  0  0  0  0  0  0  0  0  0  0
    2.6556   -2.4230   -3.1459 C   0  0  0  0  0  0  0  0  0  0  0  0
    2.8334   -3.0277   -1.8923 C   0  0  0  0  0  0  0  0  0  0  0  0
    1.8382   -2.8697   -0.9237 C   0  0  0  0  0  0  0  0  0  0  0  0
    4.0275   -3.7653   -1.7019 N   0  0  0  0  0  0  0  0  0  0  0  0
    4.3617   -4.5646   -0.6302 C   0  0  0  0  0  0  0  0  0  0  0  0
    3.6445   -4.6790    0.3596 O   0  0  0  0  0  0  0  0  0  0  0  0
    5.5827   -5.2663   -0.7495 N   0  0  0  0  0  0  0  0  0  0  0  0
    5.9036   -6.2652    0.3025 C   0  0  3  0  0  0  0  0  0  0  0  0
    5.6346   -5.8708    1.7582 C   0  0  0  0  0  0  0  0  0  0  0  0
    5.2432   -7.6028   -0.0650 C   0  0  0  0  0  0  0  0  0  0  0  0
    5.7046   -8.0722   -1.4507 C   0  0  0  0  0  0  0  0  0  0  0  0
    5.5693   -6.9770   -2.5144 C   0  0  0  0  0  0  0  0  0  0  0  0
    6.1633   -5.6288   -2.0665 C   0  0  3  0  0  0  0  0  0  0  0  0
    7.6977   -5.6345   -2.0652 C   0  0  0  0  0  0  0  0  0  0  0  0
   -0.3710   -0.9468   -2.6721 H   0  0  0  0  0  0  0  0  0  0  0  0
    1.3714   -1.2360   -4.4119 H   0  0  0  0  0  0  0  0  0  0  0  0
    3.4017   -2.5380   -3.9280 H   0  0  0  0  0  0  0  0  0  0  0  0
    1.9333   -3.3004    0.0668 H   0  0  0  0  0  0  0  0  0  0  0  0
    4.7234   -3.6239   -2.4101 H   0  0  0  0  0  0  0  0  0  0  0  0
    6.9900   -6.4023    0.2719 H   0  0  0  0  0  0  0  0  0  0  0  0
    4.5812   -5.9692    2.0362 H   0  0  0  0  0  0  0  0  0  0  0  0
    5.9608   -4.8454    1.9575 H   0  0  0  0  0  0  0  0  0  0  0  0
    6.1888   -6.5361    2.4306 H   0  0  0  0  0  0  0  0  0  0  0  0
    5.4898   -8.3705    0.6772 H   0  0  0  0  0  0  0  0  0  0  0  0
    4.1511   -7.4953   -0.0681 H   0  0  0  0  0  0  0  0  0  0  0  0
    6.7508   -8.3948   -1.3911 H   0  0  0  0  0  0  0  0  0  0  0  0
    5.1236   -8.9508   -1.7541 H   0  0  0  0  0  0  0  0  0  0  0  0
    6.0370   -7.3076   -3.4491 H   0  0  0  0  0  0  0  0  0  0  0  0
    4.5016   -6.8362   -2.7288 H   0  0  0  0  0  0  0  0  0  0  0  0
    5.8893   -4.8987   -2.8276 H   0  0  0  0  0  0  0  0  0  0  0  0
    8.1268   -6.4624   -1.4935 H   0  0  0  0  0  0  0  0  0  0  0  0
    8.0866   -4.7004   -1.6461 H   0  0  0  0  0  0  0  0  0  0  0  0
    8.0762   -5.7282   -3.0892 H   0  0  0  0  0  0  0  0  0  0  0  0
  1  2  1  0  0  0  0
  2  3  2  0  0  0  0
  2  7  1  0  0  0  0
  3  4  1  0  0  0  0
  3 19  1  0  0  0  0
  4  5  2  0  0  0  0
  4 20  1  0  0  0  0
  5  6  1  0  0  0  0
  5 21  1  0  0  0  0
  6  7  2  0  0  0  0
  6  8  1  0  0  0  0
  7 22  1  0  0  0  0
  8  9  1  0  0  0  0
  8 23  1  0  0  0  0
  9 11  1  0  0  0  0
  9 10  2  0  0  0  0
 11 17  1  0  0  0  0
 11 12  1  0  0  0  0
 12 14  1  0  0  0  0
 12 13  1  0  0  0  0
 12 24  1  0  0  0  0
 13 25  1  0  0  0  0
 13 26  1  0  0  0  0
 13 27  1  0  0  0  0
 14 15  1  0  0  0  0
 14 28  1  0  0  0  0
 14 29  1  0  0  0  0
 15 16  1  0  0  0  0
 15 30  1  0  0  0  0
 15 31  1  0  0  0  0
 16 17  1  0  0  0  0
 16 32  1  0  0  0  0
 16 33  1  0  0  0  0
 17 18  1  0  0  0  0
 17 34  1  0  0  0  0
 18 35  1  0  0  0  0
 18 36  1  0  0  0  0
 18 37  1  0  0  0  0
M  END
$$$$