30316631 30316630
 OpenBabel01211414063D

 20 20  0  0  0  0  0  0  0  0999 V2000
    3.0726   -1.3493   -0.6770 C   0  0  0  0  0  0  0  0  0  0  0  0
    2.9966   -0.0695    0.1346 C   0  0  0  0  0  0  0  0  0  0  0  0
    3.4113    1.0516   -0.6605 O   0  0  0  0  0  0  0  0  0  0  0  0
    4.7490    1.2776   -0.6973 C   0  0  0  0  0  0  0  0  0  0  0  0
    5.6128    0.6233   -0.1377 O   0  0  0  0  0  0  0  0  0  0  0  0
    4.9777    2.4612   -1.5431 C   0  0  0  0  0  0  0  0  0  0  0  0
    6.2329    2.8617   -1.7658 C   0  0  0  0  0  0  0  0  0  0  0  0
    7.5931    2.3866   -1.3555 C   0  0  0  0  0  0  0  0  0  0  0  0
    8.1326    3.4802   -2.1251 O   0  0  0  0  0  0  0  0  0  0  0  0
    6.8480    3.9803   -2.5404 C   0  0  0  0  0  0  0  0  0  0  0  0
    2.7070   -2.1996   -0.0943 H   0  0  0  0  0  0  0  0  0  0  0  0
    4.1006   -1.5575   -0.9900 H   0  0  0  0  0  0  0  0  0  0  0  0
    2.4735   -1.2621   -1.5893 H   0  0  0  0  0  0  0  0  0  0  0  0
    3.5880   -0.1420    1.0550 H   0  0  0  0  0  0  0  0  0  0  0  0
    1.9599    0.1161    0.4324 H   0  0  0  0  0  0  0  0  0  0  0  0
    4.1287    2.9818   -1.9648 H   0  0  0  0  0  0  0  0  0  0  0  0
    7.9242    1.4202   -1.7459 H   0  0  0  0  0  0  0  0  0  0  0  0
    7.8557    2.4727   -0.2974 H   0  0  0  0  0  0  0  0  0  0  0  0
    6.6729    4.9955   -2.1737 H   0  0  0  0  0  0  0  0  0  0  0  0
    6.7372    3.9536   -3.6280 H   0  0  0  0  0  0  0  0  0  0  0  0
  1  2  1  0  0  0  0
  1 11  1  0  0  0  0
  1 12  1  0  0  0  0
  1 13  1  0  0  0  0
  2  3  1  0  0  0  0
  2 14  1  0  0  0  0
  2 15  1  0  0  0  0
  3  4  1  0  0  0  0
  4  6  1  0  0  0  0
  4  5  2  0  0  0  0
  6  7  2  0  0  0  0
  6 16  1  0  0  0  0
  7 10  1  0  0  0  0
  7  8  1  0  0  0  0
  8  9  1  0  0  0  0
  8 17  1  0  0  0  0
  8 18  1  0  0  0  0
  9 10  1  0  0  0  0
 10 19  1  0  0  0  0
 10 20  1  0  0  0  0
M  END
$$$$