474222 474221
 OpenBabel01211413173D

 17 18  0  0  1  0  0  0  0  0999 V2000
    1.3227   -0.4599    0.0911 O   0  0  0  0  0  0  0  0  0  0  0  0
    2.5150   -0.2047    0.0487 C   0  0  0  0  0  0  0  0  0  0  0  0
    3.5246   -1.1375   -0.0006 O   0  0  0  0  0  0  0  0  0  0  0  0
    4.6658   -0.3719   -0.0228 C   0  0  0  0  0  0  0  0  0  0  0  0
    5.9235   -0.8170   -0.0134 C   0  0  0  0  0  0  0  0  0  0  0  0
    7.0589    0.1640    0.0225 C   0  0  0  0  0  0  0  0  0  0  0  0
    6.6454    1.4366    0.5338 O   0  0  0  0  0  0  0  0  0  0  0  0
    5.4916    1.9822   -0.1055 C   0  0  3  0  0  0  0  0  0  0  0  0
    4.3641    1.0109   -0.0493 C   0  0  0  0  0  0  0  0  0  0  0  0
    3.0499    1.1622    0.0258 C   0  0  0  0  0  0  0  0  0  0  0  0
    5.7837    2.3496   -1.4435 O   0  0  0  0  0  0  0  0  0  0  0  0
    6.1430   -1.8788   -0.0125 H   0  0  0  0  0  0  0  0  0  0  0  0
    7.8402   -0.2088    0.6922 H   0  0  0  0  0  0  0  0  0  0  0  0
    7.5005    0.2861   -0.9725 H   0  0  0  0  0  0  0  0  0  0  0  0
    5.2291    2.8979    0.4337 H   0  0  0  0  0  0  0  0  0  0  0  0
    2.4517    2.0538    0.0469 H   0  0  0  0  0  0  0  0  0  0  0  0
    5.5521    1.5989   -2.0118 H   0  0  0  0  0  0  0  0  0  0  0  0
  1  2  2  0  0  0  0
  2  3  1  0  0  0  0
  2 10  1  0  0  0  0
  3  4  1  0  0  0  0
  4  5  2  0  0  0  0
  4  9  1  0  0  0  0
  5  6  1  0  0  0  0
  5 12  1  0  0  0  0
  6  7  1  0  0  0  0
  6 13  1  0  0  0  0
  6 14  1  0  0  0  0
  7  8  1  0  0  0  0
  8  9  1  0  0  0  0
  8 11  1  0  0  0  0
  8 15  1  0  0  0  0
  9 10  2  0  0  0  0
 10 16  1  0  0  0  0
 11 17  1  0  0  0  0
M  END
$$$$