635417 635416
 OpenBabel01211413303D

 29 29  0  0  0  0  0  0  0  0999 V2000
    5.5024    2.0325   -0.7303 O   0  0  0  0  0  0  0  0  0  0  0  0
    4.8577    1.5890    0.3731 C   0  0  0  0  0  0  0  0  0  0  0  0
    4.9644    2.2009    1.4206 O   0  0  0  0  0  0  0  0  0  0  0  0
    4.0298    0.3341    0.1239 C   0  0  0  0  0  0  0  0  0  0  0  0
    4.6687   -0.9046    0.6324 N   0  0  0  0  0  0  0  0  0  0  0  0
    3.8247   -1.9571    1.0420 C   0  0  0  0  0  0  0  0  0  0  0  0
    4.3281   -3.0876    1.7091 C   0  0  0  0  0  0  0  0  0  0  0  0
    3.5041   -4.1025    2.2117 C   0  0  0  0  0  0  0  0  0  0  0  0
    2.1254   -4.0091    2.0820 C   0  0  0  0  0  0  0  0  0  0  0  0
    1.5707   -2.9068    1.4387 C   0  0  0  0  0  0  0  0  0  0  0  0
    2.4231   -1.9182    0.9032 C   0  0  0  0  0  0  0  0  0  0  0  0
    0.0816   -2.7944    1.2930 C   0  0  0  0  0  0  0  0  0  0  0  0
    5.9379   -1.2706   -0.0773 C   0  0  0  0  0  0  0  0  0  0  0  0
    7.0345   -1.8967    0.7709 C   0  0  0  0  0  0  0  0  0  0  0  0
    7.7503   -2.8267    0.4247 O   0  0  0  0  0  0  0  0  0  0  0  0
    7.2228   -1.3119    1.9723 O   0  0  0  0  0  0  0  0  0  0  0  0
    5.9663    2.8347   -0.4052 H   0  0  0  0  0  0  0  0  0  0  0  0
    3.8219    0.2402   -0.9508 H   0  0  0  0  0  0  0  0  0  0  0  0
    3.0822    0.5560    0.6179 H   0  0  0  0  0  0  0  0  0  0  0  0
    5.3840   -3.2059    1.9126 H   0  0  0  0  0  0  0  0  0  0  0  0
    3.9460   -4.9473    2.7289 H   0  0  0  0  0  0  0  0  0  0  0  0
    1.4933   -4.7889    2.4971 H   0  0  0  0  0  0  0  0  0  0  0  0
    1.9361   -1.1062    0.3710 H   0  0  0  0  0  0  0  0  0  0  0  0
   -0.2265   -1.7479    1.1920 H   0  0  0  0  0  0  0  0  0  0  0  0
   -0.4235   -3.1923    2.1805 H   0  0  0  0  0  0  0  0  0  0  0  0
   -0.2547   -3.3494    0.4129 H   0  0  0  0  0  0  0  0  0  0  0  0
    6.4041   -0.3738   -0.5020 H   0  0  0  0  0  0  0  0  0  0  0  0
    5.7090   -1.9344   -0.9159 H   0  0  0  0  0  0  0  0  0  0  0  0
    7.9038   -1.8624    2.4099 H   0  0  0  0  0  0  0  0  0  0  0  0
  1  2  1  0  0  0  0
  1 17  1  0  0  0  0
  2  4  1  0  0  0  0
  2  3  2  0  0  0  0
  4  5  1  0  0  0  0
  4 18  1  0  0  0  0
  4 19  1  0  0  0  0
  5 13  1  0  0  0  0
  5  6  1  0  0  0  0
  6  7  2  0  0  0  0
  6 11  1  0  0  0  0
  7  8  1  0  0  0  0
  7 20  1  0  0  0  0
  8  9  2  0  0  0  0
  8 21  1  0  0  0  0
  9 10  1  0  0  0  0
  9 22  1  0  0  0  0
 10 11  2  0  0  0  0
 10 12  1  0  0  0  0
 11 23  1  0  0  0  0
 12 24  1  0  0  0  0
 12 25  1  0  0  0  0
 12 26  1  0  0  0  0
 13 14  1  0  0  0  0
 13 27  1  0  0  0  0
 13 28  1  0  0  0  0
 14 16  1  0  0  0  0
 14 15  2  0  0  0  0
 16 29  1  0  0  0  0
M  END
$$$$