482883 482882
 OpenBabel01211413183D

 18 18  0  0  1  0  0  0  0  0999 V2000
    0.9261    0.0153    0.0106 C   0  0  0  0  0  0  0  0  0  0  0  0
    2.4451   -0.0755    0.0895 C   0  0  3  0  0  0  0  0  0  0  0  0
    2.9898   -1.2888   -0.5844 C   0  0  0  0  0  0  0  0  0  0  0  0
    4.0072   -0.9600   -1.3824 C   0  0  0  0  0  0  0  0  0  0  0  0
    4.2473    0.5091   -1.3431 C   0  0  3  0  0  0  0  0  0  0  0  0
    3.0922    1.0649   -0.6012 N   0  0  0  0  0  0  0  0  0  0  0  0
    5.5461    0.8621   -0.6279 C   0  0  0  0  0  0  0  0  0  0  0  0
    0.5674    0.9404    0.4752 H   0  0  0  0  0  0  0  0  0  0  0  0
    0.4616   -0.8245    0.5397 H   0  0  0  0  0  0  0  0  0  0  0  0
    0.5672   -0.0050   -1.0248 H   0  0  0  0  0  0  0  0  0  0  0  0
    2.7529   -0.0759    1.1418 H   0  0  0  0  0  0  0  0  0  0  0  0
    2.6376   -2.2938   -0.4060 H   0  0  0  0  0  0  0  0  0  0  0  0
    4.5993   -1.6564   -1.9590 H   0  0  0  0  0  0  0  0  0  0  0  0
    4.2615    0.9197   -2.3596 H   0  0  0  0  0  0  0  0  0  0  0  0
    2.4370    1.4276   -1.2918 H   0  0  0  0  0  0  0  0  0  0  0  0
    5.5629    0.4840    0.4015 H   0  0  0  0  0  0  0  0  0  0  0  0
    5.6847    1.9483   -0.5869 H   0  0  0  0  0  0  0  0  0  0  0  0
    6.4075    0.4337   -1.1521 H   0  0  0  0  0  0  0  0  0  0  0  0
  1  2  1  0  0  0  0
  1  8  1  0  0  0  0
  1  9  1  0  0  0  0
  1 10  1  0  0  0  0
  2  6  1  0  0  0  0
  2  3  1  0  0  0  0
  2 11  1  0  0  0  0
  3  4  2  0  0  0  0
  3 12  1  0  0  0  0
  4  5  1  0  0  0  0
  4 13  1  0  0  0  0
  5  6  1  0  0  0  0
  5  7  1  0  0  0  0
  5 14  1  0  0  0  0
  6 15  1  0  0  0  0
  7 16  1  0  0  0  0
  7 17  1  0  0  0  0
  7 18  1  0  0  0  0
M  END
$$$$