3233393 3233392
 OpenBabel01211413523D

 30 30  0  0  0  0  0  0  0  0999 V2000
    8.5560   -0.1945    1.8358 Cl  0  0  0  0  0  0  0  0  0  0  0  0
    6.9717    0.5911    1.5992 C   0  0  0  0  0  0  0  0  0  0  0  0
    6.1366   -0.0214    0.4627 C   0  0  0  0  0  0  0  0  0  0  0  0
    4.8258    0.7660    0.4084 C   0  0  0  0  0  0  0  0  0  0  0  0
    3.7232    0.3054    0.6749 O   0  0  0  0  0  0  0  0  0  0  0  0
    5.0550    2.0573    0.0414 O   0  0  0  0  0  0  0  0  0  0  0  0
    3.8892    2.8672   -0.1584 C   0  0  0  0  0  0  0  0  0  0  0  0
    3.4915    2.8088   -1.6112 C   0  0  0  0  0  0  0  0  0  0  0  0
    2.2714    2.2357   -1.9949 C   0  0  0  0  0  0  0  0  0  0  0  0
    1.9158    2.1681   -3.3443 C   0  0  0  0  0  0  0  0  0  0  0  0
    2.7813    2.6670   -4.3153 C   0  0  0  0  0  0  0  0  0  0  0  0
    4.0003    3.2336   -3.9494 C   0  0  0  0  0  0  0  0  0  0  0  0
    4.3545    3.3047   -2.6006 C   0  0  0  0  0  0  0  0  0  0  0  0
    2.3460    2.5777   -5.9771 Cl  0  0  0  0  0  0  0  0  0  0  0  0
    6.8374    0.0848   -0.9020 C   0  0  0  0  0  0  0  0  0  0  0  0
    5.8161   -1.5005    0.7405 C   0  0  0  0  0  0  0  0  0  0  0  0
    7.1796    1.6514    1.4168 H   0  0  0  0  0  0  0  0  0  0  0  0
    6.4375    0.5289    2.5542 H   0  0  0  0  0  0  0  0  0  0  0  0
    4.1537    3.8985    0.1016 H   0  0  0  0  0  0  0  0  0  0  0  0
    3.0679    2.5829    0.5107 H   0  0  0  0  0  0  0  0  0  0  0  0
    1.5944    1.8278   -1.2463 H   0  0  0  0  0  0  0  0  0  0  0  0
    0.9674    1.7205   -3.6298 H   0  0  0  0  0  0  0  0  0  0  0  0
    4.6791    3.6172   -4.7067 H   0  0  0  0  0  0  0  0  0  0  0  0
    5.3121    3.7409   -2.3233 H   0  0  0  0  0  0  0  0  0  0  0  0
    7.7097   -0.5747   -0.9645 H   0  0  0  0  0  0  0  0  0  0  0  0
    7.1803    1.1065   -1.1018 H   0  0  0  0  0  0  0  0  0  0  0  0
    6.1550   -0.1917   -1.7150 H   0  0  0  0  0  0  0  0  0  0  0  0
    6.7163   -2.1245    0.7319 H   0  0  0  0  0  0  0  0  0  0  0  0
    5.1329   -1.9052   -0.0164 H   0  0  0  0  0  0  0  0  0  0  0  0
    5.3308   -1.6254    1.7159 H   0  0  0  0  0  0  0  0  0  0  0  0
  1  2  1  0  0  0  0
  2  3  1  0  0  0  0
  2 17  1  0  0  0  0
  2 18  1  0  0  0  0
  3 16  1  0  0  0  0
  3 15  1  0  0  0  0
  3  4  1  0  0  0  0
  4  6  1  0  0  0  0
  4  5  2  0  0  0  0
  6  7  1  0  0  0  0
  7  8  1  0  0  0  0
  7 19  1  0  0  0  0
  7 20  1  0  0  0  0
  8  9  2  0  0  0  0
  8 13  1  0  0  0  0
  9 10  1  0  0  0  0
  9 21  1  0  0  0  0
 10 11  2  0  0  0  0
 10 22  1  0  0  0  0
 11 12  1  0  0  0  0
 11 14  1  0  0  0  0
 12 13  2  0  0  0  0
 12 23  1  0  0  0  0
 13 24  1  0  0  0  0
 15 25  1  0  0  0  0
 15 26  1  0  0  0  0
 15 27  1  0  0  0  0
 16 28  1  0  0  0  0
 16 29  1  0  0  0  0
 16 30  1  0  0  0  0
M  END
$$$$