1156578 1156577
 OpenBabel01211413403D

 42 44  0  0  1  0  0  0  0  0999 V2000
    1.8974    0.6030    1.0995 C   0  0  0  0  0  0  0  0  0  0  0  0
    1.6170   -0.5901    0.1949 C   0  0  0  0  0  0  0  0  0  0  0  0
    2.8163   -0.9721   -0.7005 C   0  0  3  0  0  0  0  0  0  0  0  0
    4.0030   -1.3605    0.1512 C   0  0  0  0  0  0  0  0  0  0  0  0
    4.9619   -0.5995    0.3033 O   0  0  0  0  0  0  0  0  0  0  0  0
    3.9190   -2.6632    0.8966 C   0  0  0  0  0  0  0  0  0  0  0  0
    3.5171   -3.7974   -0.0448 C   0  0  3  0  0  0  0  0  0  0  0  0
    2.3908   -3.4432   -0.9222 N   0  0  0  0  0  0  0  0  0  0  0  0
    2.4751   -2.1557   -1.6302 C   0  0  3  0  0  0  0  0  0  0  0  0
    3.2544   -2.2542   -2.9391 C   0  0  0  0  0  0  0  0  0  0  0  0
    2.6374   -2.8783   -4.0422 C   0  0  0  0  0  0  0  0  0  0  0  0
    3.2952   -3.0016   -5.2678 C   0  0  0  0  0  0  0  0  0  0  0  0
    4.5877   -2.5086   -5.4135 C   0  0  0  0  0  0  0  0  0  0  0  0
    5.2147   -1.8869   -4.3372 C   0  0  0  0  0  0  0  0  0  0  0  0
    4.5521   -1.7538   -3.1132 C   0  0  0  0  0  0  0  0  0  0  0  0
    4.6510   -4.5153   -0.7699 C   0  0  0  0  0  0  0  0  0  0  0  0
    4.4148   -5.8109   -1.2725 C   0  0  0  0  0  0  0  0  0  0  0  0
    5.4294   -6.5436   -1.8926 C   0  0  0  0  0  0  0  0  0  0  0  0
    6.7008   -5.9963   -2.0235 C   0  0  0  0  0  0  0  0  0  0  0  0
    6.9552   -4.7161   -1.5393 C   0  0  0  0  0  0  0  0  0  0  0  0
    5.9399   -3.9822   -0.9173 C   0  0  0  0  0  0  0  0  0  0  0  0
    0.9976    0.8634    1.6643 H   0  0  0  0  0  0  0  0  0  0  0  0
    2.1970    1.4776    0.5148 H   0  0  0  0  0  0  0  0  0  0  0  0
    2.6888    0.3812    1.8225 H   0  0  0  0  0  0  0  0  0  0  0  0
    0.7600   -0.3390   -0.4432 H   0  0  0  0  0  0  0  0  0  0  0  0
    1.3038   -1.4360    0.8173 H   0  0  0  0  0  0  0  0  0  0  0  0
    3.0916   -0.0945   -1.2993 H   0  0  0  0  0  0  0  0  0  0  0  0
    4.8707   -2.8630    1.4009 H   0  0  0  0  0  0  0  0  0  0  0  0
    3.1675   -2.5358    1.6857 H   0  0  0  0  0  0  0  0  0  0  0  0
    3.1184   -4.5683    0.6313 H   0  0  0  0  0  0  0  0  0  0  0  0
    2.2435   -4.1890   -1.6022 H   0  0  0  0  0  0  0  0  0  0  0  0
    1.4464   -1.9544   -1.9656 H   0  0  0  0  0  0  0  0  0  0  0  0
    1.6265   -3.2703   -3.9530 H   0  0  0  0  0  0  0  0  0  0  0  0
    2.7990   -3.4821   -6.1059 H   0  0  0  0  0  0  0  0  0  0  0  0
    5.1067   -2.6093   -6.3624 H   0  0  0  0  0  0  0  0  0  0  0  0
    6.2264   -1.5052   -4.4465 H   0  0  0  0  0  0  0  0  0  0  0  0
    5.0843   -1.2583   -2.3057 H   0  0  0  0  0  0  0  0  0  0  0  0
    3.4333   -6.2677   -1.1664 H   0  0  0  0  0  0  0  0  0  0  0  0
    5.2267   -7.5438   -2.2662 H   0  0  0  0  0  0  0  0  0  0  0  0
    7.4935   -6.5654   -2.5002 H   0  0  0  0  0  0  0  0  0  0  0  0
    7.9478   -4.2852   -1.6410 H   0  0  0  0  0  0  0  0  0  0  0  0
    6.1898   -2.9890   -0.5518 H   0  0  0  0  0  0  0  0  0  0  0  0
  1  2  1  0  0  0  0
  1 22  1  0  0  0  0
  1 23  1  0  0  0  0
  1 24  1  0  0  0  0
  2  3  1  0  0  0  0
  2 25  1  0  0  0  0
  2 26  1  0  0  0  0
  3  9  1  0  0  0  0
  3  4  1  0  0  0  0
  3 27  1  0  0  0  0
  4  6  1  0  0  0  0
  4  5  2  0  0  0  0
  6  7  1  0  0  0  0
  6 28  1  0  0  0  0
  6 29  1  0  0  0  0
  7  8  1  0  0  0  0
  7 16  1  0  0  0  0
  7 30  1  0  0  0  0
  8  9  1  0  0  0  0
  8 31  1  0  0  0  0
  9 10  1  0  0  0  0
  9 32  1  0  0  0  0
 10 11  2  0  0  0  0
 10 15  1  0  0  0  0
 11 12  1  0  0  0  0
 11 33  1  0  0  0  0
 12 13  2  0  0  0  0
 12 34  1  0  0  0  0
 13 14  1  0  0  0  0
 13 35  1  0  0  0  0
 14 15  2  0  0  0  0
 14 36  1  0  0  0  0
 15 37  1  0  0  0  0
 16 17  2  0  0  0  0
 16 21  1  0  0  0  0
 17 18  1  0  0  0  0
 17 38  1  0  0  0  0
 18 19  2  0  0  0  0
 18 39  1  0  0  0  0
 19 20  1  0  0  0  0
 19 40  1  0  0  0  0
 20 21  2  0  0  0  0
 20 41  1  0  0  0  0
 21 42  1  0  0  0  0
M  END
$$$$