8315243 8315242
 OpenBabel01211413583D

 22 22  0  0  0  0  0  0  0  0999 V2000
    3.0516    0.4211    0.9650 Cl  0  0  0  0  0  0  0  0  0  0  0  0
    2.5846   -0.7235   -0.3050 C   0  0  0  0  0  0  0  0  0  0  0  0
    3.2967   -0.3715   -1.5856 C   0  0  0  0  0  0  0  0  0  0  0  0
    2.6743   -0.0140   -2.5911 O   0  0  0  0  0  0  0  0  0  0  0  0
    4.8133   -0.5321   -1.6121 C   0  0  0  0  0  0  0  0  0  0  0  0
    5.1601   -1.5360   -2.6231 N   0  0  0  0  0  0  0  0  0  0  0  0
    6.6112   -1.6134   -2.8013 C   0  0  0  0  0  0  0  0  0  0  0  0
    6.9438   -2.6070   -3.8559 C   0  0  0  0  0  0  0  0  0  0  0  0
    7.0579   -3.9822   -3.8609 C   0  0  0  0  0  0  0  0  0  0  0  0
    7.3953   -4.3503   -5.1853 C   0  0  0  0  0  0  0  0  0  0  0  0
    7.4632   -3.1794   -5.9028 C   0  0  0  0  0  0  0  0  0  0  0  0
    7.1912   -2.1149   -5.1048 O   0  0  0  0  0  0  0  0  0  0  0  0
    1.5030   -0.6547   -0.4501 H   0  0  0  0  0  0  0  0  0  0  0  0
    2.8420   -1.7411    0.0006 H   0  0  0  0  0  0  0  0  0  0  0  0
    5.1714   -0.8542   -0.6295 H   0  0  0  0  0  0  0  0  0  0  0  0
    5.2450    0.4491   -1.8388 H   0  0  0  0  0  0  0  0  0  0  0  0
    4.7475   -1.2513   -3.5177 H   0  0  0  0  0  0  0  0  0  0  0  0
    7.0890   -1.9185   -1.8628 H   0  0  0  0  0  0  0  0  0  0  0  0
    7.0193   -0.6341   -3.0796 H   0  0  0  0  0  0  0  0  0  0  0  0
    6.9061   -4.6335   -3.0117 H   0  0  0  0  0  0  0  0  0  0  0  0
    7.5626   -5.3455   -5.5717 H   0  0  0  0  0  0  0  0  0  0  0  0
    7.6788   -2.9451   -6.9359 H   0  0  0  0  0  0  0  0  0  0  0  0
  1  2  1  0  0  0  0
  2  3  1  0  0  0  0
  2 13  1  0  0  0  0
  2 14  1  0  0  0  0
  3  5  1  0  0  0  0
  3  4  2  0  0  0  0
  5  6  1  0  0  0  0
  5 15  1  0  0  0  0
  5 16  1  0  0  0  0
  6  7  1  0  0  0  0
  6 17  1  0  0  0  0
  7  8  1  0  0  0  0
  7 18  1  0  0  0  0
  7 19  1  0  0  0  0
  8  9  2  0  0  0  0
  8 12  1  0  0  0  0
  9 10  1  0  0  0  0
  9 20  1  0  0  0  0
 10 11  2  0  0  0  0
 10 21  1  0  0  0  0
 11 12  1  0  0  0  0
 11 22  1  0  0  0  0
M  END
$$$$