638091 638090
 OpenBabel01211413303D

 26 26  0  0  0  0  0  0  0  0999 V2000
    3.6517   -0.9034   -0.9310 C   0  0  0  0  0  0  0  0  0  0  0  0
    3.5770    0.5080   -0.4167 C   0  0  0  0  0  0  0  0  0  0  0  0
    3.5917    0.7772    0.9000 C   0  0  0  0  0  0  0  0  0  0  0  0
    3.4487    1.5952   -1.4498 C   0  0  0  0  0  0  0  0  0  0  0  0
    4.7229    1.7197   -2.1382 N   0  0  0  0  0  0  0  0  0  0  0  0
    4.9796    2.5664   -3.2151 C   0  0  0  0  0  0  0  0  0  0  0  0
    3.8249    3.5755   -3.8976 S   0  0  0  0  0  0  0  0  0  0  0  0
    6.3388    2.4221   -3.6172 N   0  0  0  0  0  0  0  0  0  0  0  0
    7.1007    1.2632   -3.5039 C   0  0  0  0  0  0  0  0  0  0  0  0
    8.3260    1.5366   -4.0499 C   0  0  0  0  0  0  0  0  0  0  0  0
    8.3737    2.8220   -4.4886 N   0  0  0  0  0  0  0  0  0  0  0  0
    7.1878    3.3461   -4.2339 C   0  0  0  0  0  0  0  0  0  0  0  0
    6.8643    4.7746   -4.4920 C   0  0  0  0  0  0  0  0  0  0  0  0
    2.7562   -1.1439   -1.5133 H   0  0  0  0  0  0  0  0  0  0  0  0
    3.7266   -1.6330   -0.1173 H   0  0  0  0  0  0  0  0  0  0  0  0
    4.5296   -1.0349   -1.5720 H   0  0  0  0  0  0  0  0  0  0  0  0
    3.6673   -0.0122    1.6429 H   0  0  0  0  0  0  0  0  0  0  0  0
    3.5199    1.7948    1.2747 H   0  0  0  0  0  0  0  0  0  0  0  0
    3.2126    2.5626   -0.9926 H   0  0  0  0  0  0  0  0  0  0  0  0
    2.6596    1.3550   -2.1699 H   0  0  0  0  0  0  0  0  0  0  0  0
    5.5094    1.3137   -1.6445 H   0  0  0  0  0  0  0  0  0  0  0  0
    6.6941    0.3427   -3.1112 H   0  0  0  0  0  0  0  0  0  0  0  0
    9.1712    0.8692   -4.1610 H   0  0  0  0  0  0  0  0  0  0  0  0
    6.4157    5.2491   -3.6146 H   0  0  0  0  0  0  0  0  0  0  0  0
    6.2013    4.8777   -5.3552 H   0  0  0  0  0  0  0  0  0  0  0  0
    7.7817    5.3285   -4.7202 H   0  0  0  0  0  0  0  0  0  0  0  0
  1  2  1  0  0  0  0
  1 14  1  0  0  0  0
  1 15  1  0  0  0  0
  1 16  1  0  0  0  0
  2  4  1  0  0  0  0
  2  3  2  0  0  0  0
  3 17  1  0  0  0  0
  3 18  1  0  0  0  0
  4  5  1  0  0  0  0
  4 19  1  0  0  0  0
  4 20  1  0  0  0  0
  5  6  1  0  0  0  0
  5 21  1  0  0  0  0
  6  8  1  0  0  0  0
  6  7  2  0  0  0  0
  8  9  1  0  0  0  0
  8 12  1  0  0  0  0
  9 10  2  0  0  0  0
  9 22  1  0  0  0  0
 10 11  1  0  0  0  0
 10 23  1  0  0  0  0
 11 12  2  0  0  0  0
 12 13  1  0  0  0  0
 13 24  1  0  0  0  0
 13 25  1  0  0  0  0
 13 26  1  0  0  0  0
M  END
$$$$