5810616 5810615
 OpenBabel01211413553D

 26 26  0  0  0  0  0  0  0  0999 V2000
    3.1512   -0.4994    1.7267 C   0  0  0  0  0  0  0  0  0  0  0  0
    2.6436   -0.0511    0.0505 S   0  0  0  0  0  0  0  0  0  0  0  0
    3.0376    1.6432    0.0751 C   0  0  0  0  0  0  0  0  0  0  0  0
    2.1934    2.6136    0.4705 C   0  0  0  0  0  0  0  0  0  0  0  0
    0.8104    2.4474    0.9999 C   0  0  0  0  0  0  0  0  0  0  0  0
    0.4187    1.4223    1.5439 O   0  0  0  0  0  0  0  0  0  0  0  0
   -0.0914    3.6352    0.9583 C   0  0  0  0  0  0  0  0  0  0  0  0
   -1.1050    3.7249    1.9267 C   0  0  0  0  0  0  0  0  0  0  0  0
   -1.9662    4.8233    1.9483 C   0  0  0  0  0  0  0  0  0  0  0  0
   -1.8215    5.8229    0.9932 C   0  0  0  0  0  0  0  0  0  0  0  0
   -0.8366    5.7426    0.0157 C   0  0  0  0  0  0  0  0  0  0  0  0
    0.0286    4.6435   -0.0102 C   0  0  0  0  0  0  0  0  0  0  0  0
   -2.6424    6.8806    1.0175 F   0  0  0  0  0  0  0  0  0  0  0  0
    4.6457    2.1337   -0.4301 S   0  0  0  0  0  0  0  0  0  0  0  0
    4.6777    1.5178   -2.1318 C   0  0  0  0  0  0  0  0  0  0  0  0
    2.8772   -1.5414    1.9192 H   0  0  0  0  0  0  0  0  0  0  0  0
    2.6582    0.1299    2.4726 H   0  0  0  0  0  0  0  0  0  0  0  0
    4.2339   -0.4019    1.8352 H   0  0  0  0  0  0  0  0  0  0  0  0
    2.5376    3.6436    0.4465 H   0  0  0  0  0  0  0  0  0  0  0  0
   -1.2215    2.9390    2.6717 H   0  0  0  0  0  0  0  0  0  0  0  0
   -2.7464    4.9010    2.6989 H   0  0  0  0  0  0  0  0  0  0  0  0
   -0.7539    6.5321   -0.7245 H   0  0  0  0  0  0  0  0  0  0  0  0
    0.7724    4.5871   -0.8004 H   0  0  0  0  0  0  0  0  0  0  0  0
    5.6097    1.8371   -2.6053 H   0  0  0  0  0  0  0  0  0  0  0  0
    3.8412    1.9269   -2.7042 H   0  0  0  0  0  0  0  0  0  0  0  0
    4.6415    0.4260   -2.1601 H   0  0  0  0  0  0  0  0  0  0  0  0
  1  2  1  0  0  0  0
  1 16  1  0  0  0  0
  1 17  1  0  0  0  0
  1 18  1  0  0  0  0
  2  3  1  0  0  0  0
  3 14  1  0  0  0  0
  3  4  2  0  0  0  0
  4  5  1  0  0  0  0
  4 19  1  0  0  0  0
  5  7  1  0  0  0  0
  5  6  2  0  0  0  0
  7  8  2  0  0  0  0
  7 12  1  0  0  0  0
  8  9  1  0  0  0  0
  8 20  1  0  0  0  0
  9 10  2  0  0  0  0
  9 21  1  0  0  0  0
 10 11  1  0  0  0  0
 10 13  1  0  0  0  0
 11 12  2  0  0  0  0
 11 22  1  0  0  0  0
 12 23  1  0  0  0  0
 14 15  1  0  0  0  0
 15 24  1  0  0  0  0
 15 25  1  0  0  0  0
 15 26  1  0  0  0  0
M  END
$$$$