10368135 10368134
 OpenBabel01211413583D

 29 29  0  0  0  0  0  0  0  0999 V2000
    0.6961   -0.1366    0.2409 C   0  0  0  0  0  0  0  0  0  0  0  0
    2.2034    0.0066    0.1063 C   0  0  0  0  0  0  0  0  0  0  0  0
    2.8989   -0.0482    1.4668 C   0  0  0  0  0  0  0  0  0  0  0  0
    4.4131    0.0966    1.3145 C   0  0  0  0  0  0  0  0  0  0  0  0
    5.1293    0.0196    2.6639 C   0  0  0  0  0  0  0  0  0  0  0  0
    6.6373    0.0935    2.4924 C   0  0  0  0  0  0  0  0  0  0  0  0
    7.1666    0.5620    1.4872 O   0  0  0  0  0  0  0  0  0  0  0  0
    7.5055   -0.4270    3.5868 C   0  0  0  0  0  0  0  0  0  0  0  0
    8.8210   -0.7977    3.2714 C   0  0  0  0  0  0  0  0  0  0  0  0
    9.6673   -1.3071    4.2591 C   0  0  0  0  0  0  0  0  0  0  0  0
    9.2023   -1.4370    5.5659 C   0  0  0  0  0  0  0  0  0  0  0  0
    7.9003   -1.0584    5.8934 C   0  0  0  0  0  0  0  0  0  0  0  0
    7.0489   -0.5528    4.9045 C   0  0  0  0  0  0  0  0  0  0  0  0
   10.2410   -2.0668    6.7839 Cl  0  0  0  0  0  0  0  0  0  0  0  0
    0.2222   -0.0915   -0.7447 H   0  0  0  0  0  0  0  0  0  0  0  0
    0.2792    0.6672    0.8556 H   0  0  0  0  0  0  0  0  0  0  0  0
    0.4327   -1.0942    0.7008 H   0  0  0  0  0  0  0  0  0  0  0  0
    2.4313    0.9570   -0.3908 H   0  0  0  0  0  0  0  0  0  0  0  0
    2.5834   -0.7949   -0.5388 H   0  0  0  0  0  0  0  0  0  0  0  0
    2.6669   -0.9997    1.9594 H   0  0  0  0  0  0  0  0  0  0  0  0
    2.5158    0.7523    2.1100 H   0  0  0  0  0  0  0  0  0  0  0  0
    4.6434    1.0526    0.8278 H   0  0  0  0  0  0  0  0  0  0  0  0
    4.7942   -0.6926    0.6537 H   0  0  0  0  0  0  0  0  0  0  0  0
    4.8697   -0.9284    3.1485 H   0  0  0  0  0  0  0  0  0  0  0  0
    4.8121    0.8485    3.3061 H   0  0  0  0  0  0  0  0  0  0  0  0
    9.1887   -0.6964    2.2518 H   0  0  0  0  0  0  0  0  0  0  0  0
   10.6819   -1.5984    4.0008 H   0  0  0  0  0  0  0  0  0  0  0  0
    7.5441   -1.1525    6.9164 H   0  0  0  0  0  0  0  0  0  0  0  0
    6.0440   -0.2525    5.1882 H   0  0  0  0  0  0  0  0  0  0  0  0
  1  2  1  0  0  0  0
  1 15  1  0  0  0  0
  1 16  1  0  0  0  0
  1 17  1  0  0  0  0
  2  3  1  0  0  0  0
  2 18  1  0  0  0  0
  2 19  1  0  0  0  0
  3  4  1  0  0  0  0
  3 20  1  0  0  0  0
  3 21  1  0  0  0  0
  4  5  1  0  0  0  0
  4 22  1  0  0  0  0
  4 23  1  0  0  0  0
  5  6  1  0  0  0  0
  5 24  1  0  0  0  0
  5 25  1  0  0  0  0
  6  8  1  0  0  0  0
  6  7  2  0  0  0  0
  8  9  2  0  0  0  0
  8 13  1  0  0  0  0
  9 10  1  0  0  0  0
  9 26  1  0  0  0  0
 10 11  2  0  0  0  0
 10 27  1  0  0  0  0
 11 12  1  0  0  0  0
 11 14  1  0  0  0  0
 12 13  2  0  0  0  0
 12 28  1  0  0  0  0
 13 29  1  0  0  0  0
M  END
$$$$