1515484 1515483
 OpenBabel01211413443D

 38 39  0  0  1  0  0  0  0  0999 V2000
    1.4667    0.3604    0.6877 C   0  0  0  0  0  0  0  0  0  0  0  0
    2.8090    0.3026    0.2037 O   0  0  0  0  0  0  0  0  0  0  0  0
    3.3131   -0.9550    0.1089 C   0  0  0  0  0  0  0  0  0  0  0  0
    2.7072   -1.9800    0.3856 O   0  0  0  0  0  0  0  0  0  0  0  0
    4.7235   -0.9393   -0.3415 C   0  0  0  0  0  0  0  0  0  0  0  0
    5.4516    0.1931   -0.3778 C   0  0  0  0  0  0  0  0  0  0  0  0
    6.8091    0.2263   -0.6880 N   0  0  0  0  0  0  0  0  0  0  0  0
    7.5502    1.4902   -0.6757 C   0  0  0  0  0  0  0  0  0  0  0  0
    7.4848   -0.9842   -0.8165 C   0  0  0  0  0  0  0  0  0  0  0  0
    6.8722   -2.1822   -0.7981 C   0  0  0  0  0  0  0  0  0  0  0  0
    5.3540   -2.2878   -0.6909 C   0  0  3  0  0  0  0  0  0  0  0  0
    4.7266   -2.9453   -1.9221 C   0  0  0  0  0  0  0  0  0  0  0  0
    4.0653   -4.1573   -1.9883 C   0  0  0  0  0  0  0  0  0  0  0  0
    3.6392   -4.4751   -3.3092 C   0  0  0  0  0  0  0  0  0  0  0  0
    3.9726   -3.4916   -4.2159 C   0  0  0  0  0  0  0  0  0  0  0  0
    4.8069   -2.2010   -3.4673 S   0  0  0  0  0  0  0  0  0  0  0  0
    3.7052   -3.4604   -5.6815 C   0  0  0  0  0  0  0  0  0  0  0  0
    7.7183   -3.3909   -0.8788 C   0  0  0  0  0  0  0  0  0  0  0  0
    8.8991   -3.3837   -1.1963 O   0  0  0  0  0  0  0  0  0  0  0  0
    7.0137   -4.4887   -0.5071 O   0  0  0  0  0  0  0  0  0  0  0  0
    7.7529   -5.7086   -0.5658 C   0  0  0  0  0  0  0  0  0  0  0  0
    1.4105   -0.0400    1.7050 H   0  0  0  0  0  0  0  0  0  0  0  0
    0.7913   -0.1806    0.0179 H   0  0  0  0  0  0  0  0  0  0  0  0
    1.1621    1.4104    0.7136 H   0  0  0  0  0  0  0  0  0  0  0  0
    5.0325    1.1651   -0.1324 H   0  0  0  0  0  0  0  0  0  0  0  0
    6.9020    2.3343   -0.9359 H   0  0  0  0  0  0  0  0  0  0  0  0
    8.3681    1.4710   -1.4047 H   0  0  0  0  0  0  0  0  0  0  0  0
    7.9719    1.6696    0.3188 H   0  0  0  0  0  0  0  0  0  0  0  0
    8.5643   -0.8897   -0.9144 H   0  0  0  0  0  0  0  0  0  0  0  0
    5.1528   -2.9406    0.1724 H   0  0  0  0  0  0  0  0  0  0  0  0
    3.9026   -4.7922   -1.1250 H   0  0  0  0  0  0  0  0  0  0  0  0
    3.1123   -5.3825   -3.5781 H   0  0  0  0  0  0  0  0  0  0  0  0
    3.5182   -2.4423   -6.0384 H   0  0  0  0  0  0  0  0  0  0  0  0
    2.8240   -4.0629   -5.9260 H   0  0  0  0  0  0  0  0  0  0  0  0
    4.5595   -3.8693   -6.2309 H   0  0  0  0  0  0  0  0  0  0  0  0
    7.0519   -6.5353   -0.4203 H   0  0  0  0  0  0  0  0  0  0  0  0
    8.4952   -5.7352    0.2375 H   0  0  0  0  0  0  0  0  0  0  0  0
    8.2322   -5.8339   -1.5421 H   0  0  0  0  0  0  0  0  0  0  0  0
  1  2  1  0  0  0  0
  1 22  1  0  0  0  0
  1 23  1  0  0  0  0
  1 24  1  0  0  0  0
  2  3  1  0  0  0  0
  3  5  1  0  0  0  0
  3  4  2  0  0  0  0
  5  6  2  0  0  0  0
  5 11  1  0  0  0  0
  6  7  1  0  0  0  0
  6 25  1  0  0  0  0
  7  9  1  0  0  0  0
  7  8  1  0  0  0  0
  8 26  1  0  0  0  0
  8 27  1  0  0  0  0
  8 28  1  0  0  0  0
  9 10  2  0  0  0  0
  9 29  1  0  0  0  0
 10 11  1  0  0  0  0
 10 18  1  0  0  0  0
 11 12  1  0  0  0  0
 11 30  1  0  0  0  0
 12 13  2  0  0  0  0
 12 16  1  0  0  0  0
 13 14  1  0  0  0  0
 13 31  1  0  0  0  0
 14 15  2  0  0  0  0
 14 32  1  0  0  0  0
 15 16  1  0  0  0  0
 15 17  1  0  0  0  0
 17 33  1  0  0  0  0
 17 34  1  0  0  0  0
 17 35  1  0  0  0  0
 18 20  1  0  0  0  0
 18 19  2  0  0  0  0
 20 21  1  0  0  0  0
 21 36  1  0  0  0  0
 21 37  1  0  0  0  0
 21 38  1  0  0  0  0
M  END
$$$$