25717619 25717618
 OpenBabel01211414033D

 27 28  0  0  0  0  0  0  0  0999 V2000
   -1.7828   -0.2343   -0.1477 C   0  0  0  0  0  0  0  0  0  0  0  0
   -1.1101    0.5014    0.8266 C   0  0  0  0  0  0  0  0  0  0  0  0
    0.2849    0.5655    0.8170 C   0  0  0  0  0  0  0  0  0  0  0  0
    1.0204   -0.1088   -0.1672 C   0  0  0  0  0  0  0  0  0  0  0  0
    0.3322   -0.8470   -1.1406 C   0  0  0  0  0  0  0  0  0  0  0  0
   -1.0620   -0.9089   -1.1311 C   0  0  0  0  0  0  0  0  0  0  0  0
    2.5273   -0.0246   -0.2008 C   0  0  0  0  0  0  0  0  0  0  0  0
    3.1816   -1.3410   -0.1582 N   0  0  0  0  0  0  0  0  0  0  0  0
    3.3254   -1.8165    1.0327 C   0  0  0  0  0  0  0  0  0  0  0  0
    3.9707   -3.1161    1.2733 C   0  0  0  0  0  0  0  0  0  0  0  0
    4.4458   -3.9086    0.2300 C   0  0  0  0  0  0  0  0  0  0  0  0
    5.0544   -5.1259    0.5268 C   0  0  0  0  0  0  0  0  0  0  0  0
    5.1636   -5.5009    1.8578 C   0  0  0  0  0  0  0  0  0  0  0  0
    4.7126   -4.7529    2.8904 N   0  0  0  0  0  0  0  0  0  0  0  0
    4.1233   -3.5748    2.5737 C   0  0  0  0  0  0  0  0  0  0  0  0
   -2.8685   -0.2811   -0.1415 H   0  0  0  0  0  0  0  0  0  0  0  0
   -1.6731    1.0285    1.5927 H   0  0  0  0  0  0  0  0  0  0  0  0
    0.7921    1.1496    1.5808 H   0  0  0  0  0  0  0  0  0  0  0  0
    0.8891   -1.3781   -1.9104 H   0  0  0  0  0  0  0  0  0  0  0  0
   -1.5840   -1.4827   -1.8920 H   0  0  0  0  0  0  0  0  0  0  0  0
    2.9005    0.6218    0.6050 H   0  0  0  0  0  0  0  0  0  0  0  0
    2.8224    0.4733   -1.1326 H   0  0  0  0  0  0  0  0  0  0  0  0
    2.9727   -1.2678    1.9253 H   0  0  0  0  0  0  0  0  0  0  0  0
    4.3446   -3.5838   -0.8026 H   0  0  0  0  0  0  0  0  0  0  0  0
    5.4341   -5.7662   -0.2620 H   0  0  0  0  0  0  0  0  0  0  0  0
    5.6313   -6.4413    2.1366 H   0  0  0  0  0  0  0  0  0  0  0  0
    3.7736   -3.0017    3.4272 H   0  0  0  0  0  0  0  0  0  0  0  0
  1  2  2  0  0  0  0
  1  6  1  0  0  0  0
  1 16  1  0  0  0  0
  2  3  1  0  0  0  0
  2 17  1  0  0  0  0
  3  4  2  0  0  0  0
  3 18  1  0  0  0  0
  4  5  1  0  0  0  0
  4  7  1  0  0  0  0
  5  6  2  0  0  0  0
  5 19  1  0  0  0  0
  6 20  1  0  0  0  0
  7  8  1  0  0  0  0
  7 21  1  0  0  0  0
  7 22  1  0  0  0  0
  8  9  2  3  0  0  0
  9 10  1  0  0  0  0
  9 23  1  0  0  0  0
 10 11  2  0  0  0  0
 10 15  1  0  0  0  0
 11 12  1  0  0  0  0
 11 24  1  0  0  0  0
 12 13  2  0  0  0  0
 12 25  1  0  0  0  0
 13 14  1  0  0  0  0
 13 26  1  0  0  0  0
 14 15  2  0  0  0  0
 15 27  1  0  0  0  0
M  END
$$$$