1761086 1761085
 OpenBabel01211413453D

 48 50  0  0  1  0  0  0  0  0999 V2000
   -0.7474   -3.3515   -4.1232 Cl  0  0  0  0  0  0  0  0  0  0  0  0
    0.7600   -2.5244   -4.1602 C   0  0  0  0  0  0  0  0  0  0  0  0
    1.6768   -2.7080   -3.1259 C   0  0  0  0  0  0  0  0  0  0  0  0
    2.9094   -2.0455   -3.1549 C   0  0  0  0  0  0  0  0  0  0  0  0
    3.2231   -1.1966   -4.2233 C   0  0  0  0  0  0  0  0  0  0  0  0
    2.2856   -1.0079   -5.2510 C   0  0  0  0  0  0  0  0  0  0  0  0
    1.0583   -1.6751   -5.2224 C   0  0  0  0  0  0  0  0  0  0  0  0
    4.5350   -0.4879   -4.3333 C   0  0  0  0  0  0  0  0  0  0  0  0
    4.5961    0.5199   -5.0402 O   0  0  0  0  0  0  0  0  0  0  0  0
    5.7644   -1.0785   -3.6194 C   0  0  3  0  0  0  0  0  0  0  0  0
    6.1684   -2.4444   -4.1544 C   0  0  0  0  0  0  0  0  0  0  0  0
    6.7512   -3.3816   -3.2854 C   0  0  0  0  0  0  0  0  0  0  0  0
    7.1702   -4.6264   -3.7584 C   0  0  0  0  0  0  0  0  0  0  0  0
    7.0165   -4.9496   -5.1046 C   0  0  0  0  0  0  0  0  0  0  0  0
    6.4585   -4.0239   -5.9827 C   0  0  0  0  0  0  0  0  0  0  0  0
    6.0495   -2.7740   -5.5150 C   0  0  0  0  0  0  0  0  0  0  0  0
    6.9208   -0.2561   -3.8052 O   0  0  0  0  0  0  0  0  0  0  0  0
    7.0188    0.8062   -2.9736 C   0  0  0  0  0  0  0  0  0  0  0  0
    6.2355    1.0927   -2.0843 O   0  0  0  0  0  0  0  0  0  0  0  0
    8.2727    1.5547   -3.2672 C   0  0  0  0  0  0  0  0  0  0  0  0
    8.5561    2.7054   -2.5273 C   0  0  0  0  0  0  0  0  0  0  0  0
    9.7352    3.4277   -2.7629 C   0  0  0  0  0  0  0  0  0  0  0  0
   10.6648    3.0149   -3.7287 C   0  0  0  0  0  0  0  0  0  0  0  0
   10.3599    1.8580   -4.4633 C   0  0  0  0  0  0  0  0  0  0  0  0
    9.1825    1.1353   -4.2428 C   0  0  0  0  0  0  0  0  0  0  0  0
   11.8591    3.7002   -4.0027 N   0  0  0  0  0  0  0  0  0  0  0  0
   13.0556    2.9249   -3.6602 C   0  0  0  0  0  0  0  0  0  0  0  0
   11.9281    5.1145   -3.6433 C   0  0  0  0  0  0  0  0  0  0  0  0
    1.4386   -3.3663   -2.2939 H   0  0  0  0  0  0  0  0  0  0  0  0
    3.5948   -2.2062   -2.3284 H   0  0  0  0  0  0  0  0  0  0  0  0
    2.5126   -0.3472   -6.0867 H   0  0  0  0  0  0  0  0  0  0  0  0
    0.3460   -1.5281   -6.0303 H   0  0  0  0  0  0  0  0  0  0  0  0
    5.5390   -1.1608   -2.5491 H   0  0  0  0  0  0  0  0  0  0  0  0
    6.9002   -3.1405   -2.2347 H   0  0  0  0  0  0  0  0  0  0  0  0
    7.6272   -5.3407   -3.0783 H   0  0  0  0  0  0  0  0  0  0  0  0
    7.3452   -5.9179   -5.4732 H   0  0  0  0  0  0  0  0  0  0  0  0
    6.3530   -4.2691   -7.0366 H   0  0  0  0  0  0  0  0  0  0  0  0
    5.6488   -2.0574   -6.2303 H   0  0  0  0  0  0  0  0  0  0  0  0
    7.8641    3.0494   -1.7612 H   0  0  0  0  0  0  0  0  0  0  0  0
    9.9167    4.3096   -2.1560 H   0  0  0  0  0  0  0  0  0  0  0  0
   11.0373    1.5240   -5.2463 H   0  0  0  0  0  0  0  0  0  0  0  0
    8.9944    0.2517   -4.8475 H   0  0  0  0  0  0  0  0  0  0  0  0
   13.0908    1.9658   -4.1879 H   0  0  0  0  0  0  0  0  0  0  0  0
   13.1055    2.7367   -2.5813 H   0  0  0  0  0  0  0  0  0  0  0  0
   13.9585    3.4747   -3.9489 H   0  0  0  0  0  0  0  0  0  0  0  0
   11.0546    5.6605   -4.0175 H   0  0  0  0  0  0  0  0  0  0  0  0
   12.8086    5.5722   -4.1082 H   0  0  0  0  0  0  0  0  0  0  0  0
   12.0102    5.2547   -2.5601 H   0  0  0  0  0  0  0  0  0  0  0  0
  1  2  1  0  0  0  0
  2  3  2  0  0  0  0
  2  7  1  0  0  0  0
  3  4  1  0  0  0  0
  3 29  1  0  0  0  0
  4  5  2  0  0  0  0
  4 30  1  0  0  0  0
  5  6  1  0  0  0  0
  5  8  1  0  0  0  0
  6  7  2  0  0  0  0
  6 31  1  0  0  0  0
  7 32  1  0  0  0  0
  8 10  1  0  0  0  0
  8  9  2  0  0  0  0
 10 17  1  0  0  0  0
 10 11  1  0  0  0  0
 10 33  1  0  0  0  0
 11 12  2  0  0  0  0
 11 16  1  0  0  0  0
 12 13  1  0  0  0  0
 12 34  1  0  0  0  0
 13 14  2  0  0  0  0
 13 35  1  0  0  0  0
 14 15  1  0  0  0  0
 14 36  1  0  0  0  0
 15 16  2  0  0  0  0
 15 37  1  0  0  0  0
 16 38  1  0  0  0  0
 17 18  1  0  0  0  0
 18 20  1  0  0  0  0
 18 19  2  0  0  0  0
 20 21  2  0  0  0  0
 20 25  1  0  0  0  0
 21 22  1  0  0  0  0
 21 39  1  0  0  0  0
 22 23  2  0  0  0  0
 22 40  1  0  0  0  0
 23 24  1  0  0  0  0
 23 26  1  0  0  0  0
 24 25  2  0  0  0  0
 24 41  1  0  0  0  0
 25 42  1  0  0  0  0
 26 28  1  0  0  0  0
 26 27  1  0  0  0  0
 27 43  1  0  0  0  0
 27 44  1  0  0  0  0
 27 45  1  0  0  0  0
 28 46  1  0  0  0  0
 28 47  1  0  0  0  0
 28 48  1  0  0  0  0
M  END
$$$$