546072 546071
 OpenBabel01211413253D

 51 53  0  0  0  0  0  0  0  0999 V2000
    9.8612   -5.9344    5.0764 C   0  0  0  0  0  0  0  0  0  0  0  0
    8.5915   -5.9192    5.9433 C   0  0  0  0  0  0  0  0  0  0  0  0
    7.3083   -5.6239    5.2557 N   0  0  0  0  0  0  0  0  0  0  0  0
    6.9535   -4.1849    5.2173 C   0  0  0  0  0  0  0  0  0  0  0  0
    6.6007   -3.6590    6.6195 C   0  0  0  0  0  0  0  0  0  0  0  0
    7.9793   -3.2507    4.5678 C   0  0  0  0  0  0  0  0  0  0  0  0
    7.1696   -6.3245    3.9542 C   0  0  0  0  0  0  0  0  0  0  0  0
    5.8257   -6.1854    3.2509 C   0  0  0  0  0  0  0  0  0  0  0  0
    5.6613   -5.2236    2.2327 C   0  0  0  0  0  0  0  0  0  0  0  0
    6.7368   -4.4750    1.8418 O   0  0  0  0  0  0  0  0  0  0  0  0
    4.4360   -5.0129    1.6015 C   0  0  0  0  0  0  0  0  0  0  0  0
    3.3431   -5.7940    1.9517 C   0  0  0  0  0  0  0  0  0  0  0  0
    3.4919   -6.7942    2.9168 C   0  0  0  0  0  0  0  0  0  0  0  0
    4.7159   -6.9947    3.5683 C   0  0  0  0  0  0  0  0  0  0  0  0
    4.8692   -8.0003    4.4981 O   0  0  0  0  0  0  0  0  0  0  0  0
    3.8286   -8.8895    4.6724 C   0  0  0  0  0  0  0  0  0  0  0  0
    2.6146   -8.8201    4.1110 C   0  0  0  0  0  0  0  0  0  0  0  0
    2.3468   -7.6715    3.2139 C   0  0  0  0  0  0  0  0  0  0  0  0
    1.2465   -7.4656    2.7146 O   0  0  0  0  0  0  0  0  0  0  0  0
    1.5911   -9.8470    4.3471 C   0  0  0  0  0  0  0  0  0  0  0  0
    1.4419  -10.9116    3.4474 C   0  0  0  0  0  0  0  0  0  0  0  0
    0.4419  -11.8672    3.6433 C   0  0  0  0  0  0  0  0  0  0  0  0
   -0.4152  -11.7650    4.7378 C   0  0  0  0  0  0  0  0  0  0  0  0
   -0.2723  -10.7102    5.6385 C   0  0  0  0  0  0  0  0  0  0  0  0
    0.7285   -9.7543    5.4459 C   0  0  0  0  0  0  0  0  0  0  0  0
    8.4809   -7.2574    6.6868 C   0  0  0  0  0  0  0  0  0  0  0  0
   10.7480   -6.0452    5.7115 H   0  0  0  0  0  0  0  0  0  0  0  0
    9.9926   -5.0077    4.5135 H   0  0  0  0  0  0  0  0  0  0  0  0
    9.8671   -6.7681    4.3667 H   0  0  0  0  0  0  0  0  0  0  0  0
    8.7624   -5.1742    6.7277 H   0  0  0  0  0  0  0  0  0  0  0  0
    6.0173   -4.0730    4.6614 H   0  0  0  0  0  0  0  0  0  0  0  0
    7.4744   -3.5748    7.2727 H   0  0  0  0  0  0  0  0  0  0  0  0
    5.8648   -4.3062    7.1085 H   0  0  0  0  0  0  0  0  0  0  0  0
    6.1586   -2.6583    6.5449 H   0  0  0  0  0  0  0  0  0  0  0  0
    8.8492   -3.0875    5.2120 H   0  0  0  0  0  0  0  0  0  0  0  0
    7.5263   -2.2709    4.3776 H   0  0  0  0  0  0  0  0  0  0  0  0
    8.3330   -3.6301    3.6062 H   0  0  0  0  0  0  0  0  0  0  0  0
    7.3369   -7.3985    4.1042 H   0  0  0  0  0  0  0  0  0  0  0  0
    7.9606   -6.0133    3.2630 H   0  0  0  0  0  0  0  0  0  0  0  0
    6.4603   -3.8457    1.1555 H   0  0  0  0  0  0  0  0  0  0  0  0
    4.3175   -4.2547    0.8330 H   0  0  0  0  0  0  0  0  0  0  0  0
    2.3863   -5.6432    1.4560 H   0  0  0  0  0  0  0  0  0  0  0  0
    4.1367   -9.6828    5.3443 H   0  0  0  0  0  0  0  0  0  0  0  0
    2.0882  -10.9930    2.5766 H   0  0  0  0  0  0  0  0  0  0  0  0
    0.3222  -12.6821    2.9343 H   0  0  0  0  0  0  0  0  0  0  0  0
   -1.2023  -12.5015    4.8828 H   0  0  0  0  0  0  0  0  0  0  0  0
   -0.9502  -10.6235    6.4836 H   0  0  0  0  0  0  0  0  0  0  0  0
    0.8130   -8.9252    6.1441 H   0  0  0  0  0  0  0  0  0  0  0  0
    8.4001   -8.1063    6.0007 H   0  0  0  0  0  0  0  0  0  0  0  0
    7.6116   -7.2672    7.3530 H   0  0  0  0  0  0  0  0  0  0  0  0
    9.3698   -7.4203    7.3080 H   0  0  0  0  0  0  0  0  0  0  0  0
  1  2  1  0  0  0  0
  1 27  1  0  0  0  0
  1 28  1  0  0  0  0
  1 29  1  0  0  0  0
  2 26  1  0  0  0  0
  2  3  1  0  0  0  0
  2 30  1  0  0  0  0
  3  7  1  0  0  0  0
  3  4  1  0  0  0  0
  4  6  1  0  0  0  0
  4  5  1  0  0  0  0
  4 31  1  0  0  0  0
  5 32  1  0  0  0  0
  5 33  1  0  0  0  0
  5 34  1  0  0  0  0
  6 35  1  0  0  0  0
  6 36  1  0  0  0  0
  6 37  1  0  0  0  0
  7  8  1  0  0  0  0
  7 38  1  0  0  0  0
  7 39  1  0  0  0  0
  8  9  2  0  0  0  0
  8 14  1  0  0  0  0
  9 11  1  0  0  0  0
  9 10  1  0  0  0  0
 10 40  1  0  0  0  0
 11 12  2  0  0  0  0
 11 41  1  0  0  0  0
 12 13  1  0  0  0  0
 12 42  1  0  0  0  0
 13 18  1  0  0  0  0
 13 14  2  0  0  0  0
 14 15  1  0  0  0  0
 15 16  1  0  0  0  0
 16 17  2  0  0  0  0
 16 43  1  0  0  0  0
 17 18  1  0  0  0  0
 17 20  1  0  0  0  0
 18 19  2  0  0  0  0
 20 21  2  0  0  0  0
 20 25  1  0  0  0  0
 21 22  1  0  0  0  0
 21 44  1  0  0  0  0
 22 23  2  0  0  0  0
 22 45  1  0  0  0  0
 23 24  1  0  0  0  0
 23 46  1  0  0  0  0
 24 25  2  0  0  0  0
 24 47  1  0  0  0  0
 25 48  1  0  0  0  0
 26 49  1  0  0  0  0
 26 50  1  0  0  0  0
 26 51  1  0  0  0  0
M  END
$$$$