501057 501056
 OpenBabel01211413193D

 13 13  0  0  0  0  0  0  0  0999 V2000
    0.8722   -0.0306    0.1224 C   0  0  0  0  0  0  0  0  0  0  0  0
    2.3571    0.0370    0.0493 C   0  0  0  0  0  0  0  0  0  0  0  0
    3.1051    1.1490   -0.0099 C   0  0  0  0  0  0  0  0  0  0  0  0
    4.8105    0.7818   -0.0509 S   0  0  0  0  0  0  0  0  0  0  0  0
    4.4877   -0.9634    0.0510 C   0  0  0  0  0  0  0  0  0  0  0  0
    5.6444   -2.1535    0.1167 S   0  0  0  0  0  0  0  0  0  0  0  0
    3.1209   -1.1051    0.0364 N   0  0  0  0  0  0  0  0  0  0  0  0
    2.4744   -2.3205    0.2882 O   0  0  0  0  0  0  0  0  0  0  0  0
    0.4248    0.9684    0.1146 H   0  0  0  0  0  0  0  0  0  0  0  0
    0.5505   -0.5329    1.0408 H   0  0  0  0  0  0  0  0  0  0  0  0
    0.4704   -0.5824   -0.7344 H   0  0  0  0  0  0  0  0  0  0  0  0
    2.7303    2.1622   -0.0138 H   0  0  0  0  0  0  0  0  0  0  0  0
    2.6065   -2.7901   -0.5550 H   0  0  0  0  0  0  0  0  0  0  0  0
  1  2  1  0  0  0  0
  1  9  1  0  0  0  0
  1 10  1  0  0  0  0
  1 11  1  0  0  0  0
  2  3  2  0  0  0  0
  2  7  1  0  0  0  0
  3  4  1  0  0  0  0
  3 12  1  0  0  0  0
  4  5  1  0  0  0  0
  5  7  1  0  0  0  0
  5  6  2  0  0  0  0
  7  8  1  0  0  0  0
  8 13  1  0  0  0  0
M  END
$$$$