2086306 2086305
 OpenBabel01211413473D

 35 34  0  0  0  0  0  0  0  0999 V2000
    5.4927   -6.2553    2.1359 C   0  0  0  0  0  0  0  0  0  0  0  0
    5.9492   -5.0181    1.8996 C   0  0  0  0  0  0  0  0  0  0  0  0
    7.0490   -4.6880    0.9364 C   0  0  0  0  0  0  0  0  0  0  0  0
    6.5372   -3.7729   -0.0785 N   0  0  0  0  0  0  0  0  0  0  0  0
    6.2951   -4.1432   -1.3960 C   0  0  0  0  0  0  0  0  0  0  0  0
    5.9483   -3.3319   -2.2543 O   0  0  0  0  0  0  0  0  0  0  0  0
    6.4672   -5.5987   -1.7626 C   0  0  0  0  0  0  0  0  0  0  0  0
    6.4294   -2.3409    0.2613 C   0  0  0  0  0  0  0  0  0  0  0  0
    8.0444   -1.5701    0.4229 P   0  0  3  0  0  0  0  0  0  0  0  0
    9.1539   -2.1822   -0.3818 O   0  0  0  0  0  0  0  0  0  0  0  0
    7.8122    0.0088    0.1684 O   0  0  0  0  0  0  0  0  0  0  0  0
    7.7369    0.5470   -1.1451 C   0  0  0  0  0  0  0  0  0  0  0  0
    7.1459    1.9466   -1.0024 C   0  0  0  0  0  0  0  0  0  0  0  0
    9.1229    0.6303   -1.7716 C   0  0  0  0  0  0  0  0  0  0  0  0
    8.4123   -1.5427    2.1755 C   0  0  0  0  0  0  0  0  0  0  0  0
    4.6959   -6.4248    2.8550 H   0  0  0  0  0  0  0  0  0  0  0  0
    5.8938   -7.1239    1.6234 H   0  0  0  0  0  0  0  0  0  0  0  0
    5.5090   -4.1950    2.4566 H   0  0  0  0  0  0  0  0  0  0  0  0
    7.4574   -5.5956    0.4851 H   0  0  0  0  0  0  0  0  0  0  0  0
    7.8805   -4.2172    1.4618 H   0  0  0  0  0  0  0  0  0  0  0  0
    5.9328   -6.2466   -1.0643 H   0  0  0  0  0  0  0  0  0  0  0  0
    7.5305   -5.8515   -1.7862 H   0  0  0  0  0  0  0  0  0  0  0  0
    6.0492   -5.7742   -2.7589 H   0  0  0  0  0  0  0  0  0  0  0  0
    5.8520   -2.2370    1.1844 H   0  0  0  0  0  0  0  0  0  0  0  0
    5.8694   -1.8168   -0.5182 H   0  0  0  0  0  0  0  0  0  0  0  0
    7.0729   -0.0674   -1.7619 H   0  0  0  0  0  0  0  0  0  0  0  0
    7.7559    2.5609   -0.3291 H   0  0  0  0  0  0  0  0  0  0  0  0
    6.1460    1.8974   -0.5582 H   0  0  0  0  0  0  0  0  0  0  0  0
    7.0737    2.4554   -1.9684 H   0  0  0  0  0  0  0  0  0  0  0  0
    9.8582    1.0130   -1.0556 H   0  0  0  0  0  0  0  0  0  0  0  0
    9.1247    1.2696   -2.6601 H   0  0  0  0  0  0  0  0  0  0  0  0
    9.4665   -0.3597   -2.0837 H   0  0  0  0  0  0  0  0  0  0  0  0
    7.5800   -1.1061    2.7349 H   0  0  0  0  0  0  0  0  0  0  0  0
    9.3029   -0.9339    2.3568 H   0  0  0  0  0  0  0  0  0  0  0  0
    8.6042   -2.5414    2.5701 H   0  0  0  0  0  0  0  0  0  0  0  0
  1  2  2  0  0  0  0
  1 16  1  0  0  0  0
  1 17  1  0  0  0  0
  2  3  1  0  0  0  0
  2 18  1  0  0  0  0
  3  4  1  0  0  0  0
  3 19  1  0  0  0  0
  3 20  1  0  0  0  0
  4  8  1  0  0  0  0
  4  5  1  0  0  0  0
  5  7  1  0  0  0  0
  5  6  2  0  0  0  0
  7 21  1  0  0  0  0
  7 22  1  0  0  0  0
  7 23  1  0  0  0  0
  8  9  1  0  0  0  0
  8 24  1  0  0  0  0
  8 25  1  0  0  0  0
  9 15  1  0  0  0  0
  9 11  1  0  0  0  0
  9 10  2  0  0  0  0
 11 12  1  0  0  0  0
 12 14  1  0  0  0  0
 12 13  1  0  0  0  0
 12 26  1  0  0  0  0
 13 27  1  0  0  0  0
 13 28  1  0  0  0  0
 13 29  1  0  0  0  0
 14 30  1  0  0  0  0
 14 31  1  0  0  0  0
 14 32  1  0  0  0  0
 15 33  1  0  0  0  0
 15 34  1  0  0  0  0
 15 35  1  0  0  0  0
M  END
$$$$