497919 497918
 OpenBabel01211413193D

 16 16  0  0  0  0  0  0  0  0999 V2000
    1.6633   -0.7496    0.5361 O   0  0  0  0  0  0  0  0  0  0  0  0
    2.2882    0.2952   -0.0301 C   0  0  0  0  0  0  0  0  0  0  0  0
    2.2297    1.4121    0.4507 O   0  0  0  0  0  0  0  0  0  0  0  0
    3.0172   -0.0679   -1.2473 C   0  0  0  0  0  0  0  0  0  0  0  0
    3.1192   -1.2862   -1.7953 C   0  0  0  0  0  0  0  0  0  0  0  0
    3.9619   -1.2630   -3.0258 C   0  0  0  0  0  0  0  0  0  0  0  0
    4.0736    0.2305   -3.3326 C   0  0  0  0  0  0  0  0  0  0  0  0
    3.7726    0.9597   -2.0223 C   0  0  0  0  0  0  0  0  0  0  0  0
    1.2290   -0.3600    1.3215 H   0  0  0  0  0  0  0  0  0  0  0  0
    2.6720   -2.1857   -1.3939 H   0  0  0  0  0  0  0  0  0  0  0  0
    4.9416   -1.7080   -2.8244 H   0  0  0  0  0  0  0  0  0  0  0  0
    3.4904   -1.8007   -3.8535 H   0  0  0  0  0  0  0  0  0  0  0  0
    3.3283    0.5087   -4.0895 H   0  0  0  0  0  0  0  0  0  0  0  0
    5.0563    0.4960   -3.7359 H   0  0  0  0  0  0  0  0  0  0  0  0
    3.1870    1.8657   -2.2061 H   0  0  0  0  0  0  0  0  0  0  0  0
    4.6963    1.2314   -1.5000 H   0  0  0  0  0  0  0  0  0  0  0  0
  1  2  1  0  0  0  0
  1  9  1  0  0  0  0
  2  4  1  0  0  0  0
  2  3  2  0  0  0  0
  4  5  2  0  0  0  0
  4  8  1  0  0  0  0
  5  6  1  0  0  0  0
  5 10  1  0  0  0  0
  6  7  1  0  0  0  0
  6 11  1  0  0  0  0
  6 12  1  0  0  0  0
  7  8  1  0  0  0  0
  7 13  1  0  0  0  0
  7 14  1  0  0  0  0
  8 15  1  0  0  0  0
  8 16  1  0  0  0  0
M  END
$$$$