1438032 1438031
 OpenBabel01211413433D

 49 51  0  0  0  0  0  0  0  0999 V2000
   -2.1677   -4.5041   -2.4973 C   0  0  0  0  0  0  0  0  0  0  0  0
   -1.0660   -3.8257   -1.9058 O   0  0  0  0  0  0  0  0  0  0  0  0
   -0.0228   -4.6008   -1.4709 C   0  0  0  0  0  0  0  0  0  0  0  0
    0.6797   -4.0373   -0.4034 C   0  0  0  0  0  0  0  0  0  0  0  0
    1.7742   -4.6966    0.1691 C   0  0  0  0  0  0  0  0  0  0  0  0
    2.2117   -5.9436   -0.3061 C   0  0  0  0  0  0  0  0  0  0  0  0
    1.5023   -6.4794   -1.4046 C   0  0  0  0  0  0  0  0  0  0  0  0
    0.4138   -5.8185   -2.0061 C   0  0  0  0  0  0  0  0  0  0  0  0
   -0.2470   -6.3185   -3.0986 O   0  0  0  0  0  0  0  0  0  0  0  0
    0.4101   -7.3139   -3.8738 C   0  0  0  0  0  0  0  0  0  0  0  0
    3.3602   -6.6459    0.3323 C   0  0  0  0  0  0  0  0  0  0  0  0
    3.9496   -6.0006    1.3634 N   0  0  0  0  0  0  0  0  0  0  0  0
    4.9807   -6.5982    1.9746 C   0  0  0  0  0  0  0  0  0  0  0  0
    5.7842   -5.7341    3.2952 S   0  0  0  0  0  0  0  0  0  0  0  0
    6.2209   -4.2266    2.3855 C   0  0  0  0  0  0  0  0  0  0  0  0
    7.1318   -4.5191    1.2049 C   0  0  0  0  0  0  0  0  0  0  0  0
    6.8598   -4.1446    0.0670 O   0  0  0  0  0  0  0  0  0  0  0  0
    8.3110   -5.1536    1.5257 N   0  0  0  0  0  0  0  0  0  0  0  0
    9.3031   -5.4886    0.5287 C   0  0  0  0  0  0  0  0  0  0  0  0
    9.5946   -6.9514    0.6212 C   0  0  0  0  0  0  0  0  0  0  0  0
   10.5169   -7.5964    1.4235 C   0  0  0  0  0  0  0  0  0  0  0  0
   10.4977   -9.0097    1.2433 C   0  0  0  0  0  0  0  0  0  0  0  0
    9.5659   -9.3967    0.3067 C   0  0  0  0  0  0  0  0  0  0  0  0
    8.7380   -8.0609   -0.3643 S   0  0  0  0  0  0  0  0  0  0  0  0
    5.4670   -7.8046    1.6670 N   0  0  0  0  0  0  0  0  0  0  0  0
    4.8804   -8.4461    0.6318 C   0  0  0  0  0  0  0  0  0  0  0  0
    3.8208   -7.8895   -0.0666 C   0  0  0  0  0  0  0  0  0  0  0  0
    5.3750   -9.8229    0.2141 C   0  0  0  0  0  0  0  0  0  0  0  0
    4.3813  -10.7583    0.2691 F   0  0  0  0  0  0  0  0  0  0  0  0
    5.8163   -9.8461   -1.0769 F   0  0  0  0  0  0  0  0  0  0  0  0
    6.3915  -10.3198    0.9707 F   0  0  0  0  0  0  0  0  0  0  0  0
   -2.4086   -5.4389   -1.9795 H   0  0  0  0  0  0  0  0  0  0  0  0
   -1.9889   -4.6684   -3.5638 H   0  0  0  0  0  0  0  0  0  0  0  0
   -3.0419   -3.8516   -2.4124 H   0  0  0  0  0  0  0  0  0  0  0  0
    0.3667   -3.0751   -0.0034 H   0  0  0  0  0  0  0  0  0  0  0  0
    2.2800   -4.2162    1.0036 H   0  0  0  0  0  0  0  0  0  0  0  0
    1.8000   -7.4407   -1.8040 H   0  0  0  0  0  0  0  0  0  0  0  0
   -0.1477   -7.4327   -4.8070 H   0  0  0  0  0  0  0  0  0  0  0  0
    0.3980   -8.2773   -3.3550 H   0  0  0  0  0  0  0  0  0  0  0  0
    1.4314   -7.0160   -4.1327 H   0  0  0  0  0  0  0  0  0  0  0  0
    6.7433   -3.5426    3.0609 H   0  0  0  0  0  0  0  0  0  0  0  0
    5.3170   -3.7204    2.0324 H   0  0  0  0  0  0  0  0  0  0  0  0
    8.4180   -5.5379    2.4566 H   0  0  0  0  0  0  0  0  0  0  0  0
   10.2032   -4.9112    0.7665 H   0  0  0  0  0  0  0  0  0  0  0  0
    8.9767   -5.1991   -0.4750 H   0  0  0  0  0  0  0  0  0  0  0  0
   11.1732   -7.0804    2.1137 H   0  0  0  0  0  0  0  0  0  0  0  0
   11.1307   -9.7089    1.7763 H   0  0  0  0  0  0  0  0  0  0  0  0
    9.3307  -10.4011   -0.0193 H   0  0  0  0  0  0  0  0  0  0  0  0
    3.3831   -8.4405   -0.8886 H   0  0  0  0  0  0  0  0  0  0  0  0
  1  2  1  0  0  0  0
  1 32  1  0  0  0  0
  1 33  1  0  0  0  0
  1 34  1  0  0  0  0
  2  3  1  0  0  0  0
  3  4  2  0  0  0  0
  3  8  1  0  0  0  0
  4  5  1  0  0  0  0
  4 35  1  0  0  0  0
  5  6  2  0  0  0  0
  5 36  1  0  0  0  0
  6  7  1  0  0  0  0
  6 11  1  0  0  0  0
  7  8  2  0  0  0  0
  7 37  1  0  0  0  0
  8  9  1  0  0  0  0
  9 10  1  0  0  0  0
 10 38  1  0  0  0  0
 10 39  1  0  0  0  0
 10 40  1  0  0  0  0
 11 27  1  0  0  0  0
 11 12  2  0  0  0  0
 12 13  1  0  0  0  0
 13 25  2  0  0  0  0
 13 14  1  0  0  0  0
 14 15  1  0  0  0  0
 15 16  1  0  0  0  0
 15 41  1  0  0  0  0
 15 42  1  0  0  0  0
 16 18  1  0  0  0  0
 16 17  2  0  0  0  0
 18 19  1  0  0  0  0
 18 43  1  0  0  0  0
 19 20  1  0  0  0  0
 19 44  1  0  0  0  0
 19 45  1  0  0  0  0
 20 21  2  0  0  0  0
 20 24  1  0  0  0  0
 21 22  1  0  0  0  0
 21 46  1  0  0  0  0
 22 23  2  0  0  0  0
 22 47  1  0  0  0  0
 23 24  1  0  0  0  0
 23 48  1  0  0  0  0
 25 26  1  0  0  0  0
 26 27  2  0  0  0  0
 26 28  1  0  0  0  0
 27 49  1  0  0  0  0
 28 31  1  0  0  0  0
 28 30  1  0  0  0  0
 28 29  1  0  0  0  0
M  END
$$$$