1470962 1470961
 OpenBabel01211413443D

 35 35  0  0  1  0  0  0  0  0999 V2000
    9.9888   -2.0339   -2.7172 C   0  0  0  0  0  0  0  0  0  0  0  0
    8.9869   -1.1436   -2.1505 N   0  0  0  0  0  0  0  0  0  0  0  0
    8.1423   -1.8481   -1.1740 C   0  0  0  0  0  0  0  0  0  0  0  0
    7.0418   -0.9309   -0.6097 C   0  0  3  0  0  0  0  0  0  0  0  0
    7.6166    0.3039    0.0973 C   0  0  0  0  0  0  0  0  0  0  0  0
    6.5265    0.9705    0.7536 O   0  0  0  0  0  0  0  0  0  0  0  0
    6.8547    2.0498    1.5344 C   0  0  0  0  0  0  0  0  0  0  0  0
    8.0091    2.8210    1.3526 C   0  0  0  0  0  0  0  0  0  0  0  0
    8.2543    3.9345    2.1592 C   0  0  0  0  0  0  0  0  0  0  0  0
    7.3450    4.2931    3.1485 C   0  0  0  0  0  0  0  0  0  0  0  0
    6.1909    3.5348    3.3352 C   0  0  0  0  0  0  0  0  0  0  0  0
    5.9338    2.4047    2.5379 C   0  0  0  0  0  0  0  0  0  0  0  0
    4.6667    1.6147    2.7813 C   0  0  0  0  0  0  0  0  0  0  0  0
    3.4764    2.2039    2.0785 C   0  0  0  0  0  0  0  0  0  0  0  0
    2.3680    2.6379    2.6983 C   0  0  0  0  0  0  0  0  0  0  0  0
    6.1767   -0.5161   -1.6833 O   0  0  0  0  0  0  0  0  0  0  0  0
   10.5601   -1.5002   -3.4836 H   0  0  0  0  0  0  0  0  0  0  0  0
    9.5348   -2.9127   -3.1874 H   0  0  0  0  0  0  0  0  0  0  0  0
   10.6971   -2.3639   -1.9497 H   0  0  0  0  0  0  0  0  0  0  0  0
    8.3689   -0.8032   -2.8929 H   0  0  0  0  0  0  0  0  0  0  0  0
    8.7574   -2.2259   -0.3494 H   0  0  0  0  0  0  0  0  0  0  0  0
    7.6620   -2.7026   -1.6668 H   0  0  0  0  0  0  0  0  0  0  0  0
    6.4163   -1.5017    0.0869 H   0  0  0  0  0  0  0  0  0  0  0  0
    8.0522    0.9752   -0.6499 H   0  0  0  0  0  0  0  0  0  0  0  0
    8.3647    0.0011    0.8388 H   0  0  0  0  0  0  0  0  0  0  0  0
    8.7324    2.5949    0.5763 H   0  0  0  0  0  0  0  0  0  0  0  0
    9.1511    4.5285    2.0038 H   0  0  0  0  0  0  0  0  0  0  0  0
    7.5307    5.1654    3.7695 H   0  0  0  0  0  0  0  0  0  0  0  0
    5.4819    3.8302    4.1060 H   0  0  0  0  0  0  0  0  0  0  0  0
    4.4912    1.5553    3.8639 H   0  0  0  0  0  0  0  0  0  0  0  0
    4.7921    0.5748    2.4573 H   0  0  0  0  0  0  0  0  0  0  0  0
    3.5338    2.2662    0.9953 H   0  0  0  0  0  0  0  0  0  0  0  0
    2.2624    2.5936    3.7777 H   0  0  0  0  0  0  0  0  0  0  0  0
    1.5406    3.0507    2.1287 H   0  0  0  0  0  0  0  0  0  0  0  0
    5.6215    0.1960   -1.3137 H   0  0  0  0  0  0  0  0  0  0  0  0
  1  2  1  0  0  0  0
  1 17  1  0  0  0  0
  1 18  1  0  0  0  0
  1 19  1  0  0  0  0
  2  3  1  0  0  0  0
  2 20  1  0  0  0  0
  3  4  1  0  0  0  0
  3 21  1  0  0  0  0
  3 22  1  0  0  0  0
  4 16  1  0  0  0  0
  4  5  1  0  0  0  0
  4 23  1  0  0  0  0
  5  6  1  0  0  0  0
  5 24  1  0  0  0  0
  5 25  1  0  0  0  0
  6  7  1  0  0  0  0
  7  8  2  0  0  0  0
  7 12  1  0  0  0  0
  8  9  1  0  0  0  0
  8 26  1  0  0  0  0
  9 10  2  0  0  0  0
  9 27  1  0  0  0  0
 10 11  1  0  0  0  0
 10 28  1  0  0  0  0
 11 12  2  0  0  0  0
 11 29  1  0  0  0  0
 12 13  1  0  0  0  0
 13 14  1  0  0  0  0
 13 30  1  0  0  0  0
 13 31  1  0  0  0  0
 14 15  2  0  0  0  0
 14 32  1  0  0  0  0
 15 33  1  0  0  0  0
 15 34  1  0  0  0  0
 16 35  1  0  0  0  0
M  END
$$$$