619101 619100
 OpenBabel01211413293D

 30 32  0  0  0  0  0  0  0  0999 V2000
    1.2193   -2.7112    2.0647 C   0  0  0  0  0  0  0  0  0  0  0  0
    0.5759   -3.8566    1.7968 C   0  0  0  0  0  0  0  0  0  0  0  0
   -0.7103   -3.9149    1.0250 C   0  0  0  0  0  0  0  0  0  0  0  0
   -1.2437   -2.5629    0.6084 C   0  0  0  0  0  0  0  0  0  0  0  0
   -0.5980   -1.4086    0.8823 C   0  0  0  0  0  0  0  0  0  0  0  0
    0.7200   -1.3665    1.6220 C   0  0  0  0  0  0  0  0  0  0  0  0
   -1.1448   -0.0591    0.4845 C   0  0  0  0  0  0  0  0  0  0  0  0
   -2.5231   -0.0917   -0.1302 C   0  0  0  0  0  0  0  0  0  0  0  0
   -3.1651   -1.2463   -0.4116 C   0  0  0  0  0  0  0  0  0  0  0  0
   -2.5618   -2.6004   -0.1265 C   0  0  0  0  0  0  0  0  0  0  0  0
   -4.5462   -1.2833   -1.0254 C   0  0  0  0  0  0  0  0  0  0  0  0
   -5.1409    0.0708   -1.2828 C   0  0  0  0  0  0  0  0  0  0  0  0
   -4.5056    1.2169   -0.9993 C   0  0  0  0  0  0  0  0  0  0  0  0
   -3.1322    1.2665   -0.3955 C   0  0  0  0  0  0  0  0  0  0  0  0
    2.1474   -2.7335    2.6288 H   0  0  0  0  0  0  0  0  0  0  0  0
    0.9865   -4.7994    2.1464 H   0  0  0  0  0  0  0  0  0  0  0  0
   -1.4594   -4.4182    1.6479 H   0  0  0  0  0  0  0  0  0  0  0  0
   -0.5523   -4.5311    0.1321 H   0  0  0  0  0  0  0  0  0  0  0  0
    1.4798   -0.9090    0.9774 H   0  0  0  0  0  0  0  0  0  0  0  0
    0.6123   -0.7327    2.5103 H   0  0  0  0  0  0  0  0  0  0  0  0
   -0.4517    0.4079   -0.2262 H   0  0  0  0  0  0  0  0  0  0  0  0
   -1.1814    0.5751    1.3792 H   0  0  0  0  0  0  0  0  0  0  0  0
   -3.2762   -3.1757    0.4756 H   0  0  0  0  0  0  0  0  0  0  0  0
   -2.4222   -3.1328   -1.0757 H   0  0  0  0  0  0  0  0  0  0  0  0
   -5.2209   -1.8328   -0.3581 H   0  0  0  0  0  0  0  0  0  0  0  0
   -4.5024   -1.8282   -1.9759 H   0  0  0  0  0  0  0  0  0  0  0  0
   -6.1355    0.0996   -1.7185 H   0  0  0  0  0  0  0  0  0  0  0  0
   -4.9898    2.1671   -1.2065 H   0  0  0  0  0  0  0  0  0  0  0  0
   -2.4769    1.8293   -1.0706 H   0  0  0  0  0  0  0  0  0  0  0  0
   -3.1930    1.8216    0.5483 H   0  0  0  0  0  0  0  0  0  0  0  0
  1  2  2  0  0  0  0
  1  6  1  0  0  0  0
  1 15  1  0  0  0  0
  2  3  1  0  0  0  0
  2 16  1  0  0  0  0
  3  4  1  0  0  0  0
  3 17  1  0  0  0  0
  3 18  1  0  0  0  0
  4  5  2  0  0  0  0
  4 10  1  0  0  0  0
  5  6  1  0  0  0  0
  5  7  1  0  0  0  0
  6 19  1  0  0  0  0
  6 20  1  0  0  0  0
  7  8  1  0  0  0  0
  7 21  1  0  0  0  0
  7 22  1  0  0  0  0
  8  9  2  0  0  0  0
  8 14  1  0  0  0  0
  9 10  1  0  0  0  0
  9 11  1  0  0  0  0
 10 23  1  0  0  0  0
 10 24  1  0  0  0  0
 11 12  1  0  0  0  0
 11 25  1  0  0  0  0
 11 26  1  0  0  0  0
 12 13  2  0  0  0  0
 12 27  1  0  0  0  0
 13 14  1  0  0  0  0
 13 28  1  0  0  0  0
 14 29  1  0  0  0  0
 14 30  1  0  0  0  0
M  END
$$$$