1197100 1197099
 OpenBabel01211413403D

 30 31  0  0  0  0  0  0  0  0999 V2000
   -0.5995   -2.4513    0.9034 Cl  0  0  0  0  0  0  0  0  0  0  0  0
    0.3283   -2.0153    2.2897 C   0  0  0  0  0  0  0  0  0  0  0  0
    1.6676   -1.9614    2.2939 C   0  0  0  0  0  0  0  0  0  0  0  0
    2.5973   -2.2576    1.1493 C   0  0  0  0  0  0  0  0  0  0  0  0
    3.6331   -3.3073    1.4963 C   0  0  0  0  0  0  0  0  0  0  0  0
    3.3908   -4.6642    1.2712 C   0  0  0  0  0  0  0  0  0  0  0  0
    2.1088   -5.1728    0.6753 C   0  0  0  0  0  0  0  0  0  0  0  0
    4.2876   -5.6309    1.5802 N   0  0  0  0  0  0  0  0  0  0  0  0
    5.4649   -5.3027    2.1270 C   0  0  0  0  0  0  0  0  0  0  0  0
    5.8284   -3.9783    2.4105 C   0  0  0  0  0  0  0  0  0  0  0  0
    4.8712   -2.9817    2.0864 C   0  0  0  0  0  0  0  0  0  0  0  0
    5.2369   -1.3119    2.4395 Cl  0  0  0  0  0  0  0  0  0  0  0  0
    7.1056   -3.7386    2.9902 C   0  0  0  0  0  0  0  0  0  0  0  0
    7.9963   -4.7810    3.2741 C   0  0  0  0  0  0  0  0  0  0  0  0
    7.6044   -6.0851    2.9921 C   0  0  0  0  0  0  0  0  0  0  0  0
    6.3519   -6.3279    2.4238 C   0  0  0  0  0  0  0  0  0  0  0  0
    9.3318   -4.4874    3.8896 C   0  0  0  0  0  0  0  0  0  0  0  0
   -0.5493   -1.6244    3.7291 Cl  0  0  0  0  0  0  0  0  0  0  0  0
    2.1596   -1.6546    3.2163 H   0  0  0  0  0  0  0  0  0  0  0  0
    3.0871   -1.3247    0.8471 H   0  0  0  0  0  0  0  0  0  0  0  0
    2.0597   -2.5601    0.2455 H   0  0  0  0  0  0  0  0  0  0  0  0
    1.2645   -4.9380    1.3286 H   0  0  0  0  0  0  0  0  0  0  0  0
    2.1412   -6.2617    0.5591 H   0  0  0  0  0  0  0  0  0  0  0  0
    1.9444   -4.7445   -0.3177 H   0  0  0  0  0  0  0  0  0  0  0  0
    7.4174   -2.7216    3.2223 H   0  0  0  0  0  0  0  0  0  0  0  0
    8.2619   -6.9245    3.2061 H   0  0  0  0  0  0  0  0  0  0  0  0
    6.0585   -7.3526    2.2050 H   0  0  0  0  0  0  0  0  0  0  0  0
    9.9618   -5.3824    3.9255 H   0  0  0  0  0  0  0  0  0  0  0  0
    9.2021   -4.1202    4.9124 H   0  0  0  0  0  0  0  0  0  0  0  0
    9.8631   -3.7329    3.3003 H   0  0  0  0  0  0  0  0  0  0  0  0
  1  2  1  0  0  0  0
  2 18  1  0  0  0  0
  2  3  2  0  0  0  0
  3  4  1  0  0  0  0
  3 19  1  0  0  0  0
  4  5  1  0  0  0  0
  4 20  1  0  0  0  0
  4 21  1  0  0  0  0
  5  6  2  0  0  0  0
  5 11  1  0  0  0  0
  6  8  1  0  0  0  0
  6  7  1  0  0  0  0
  7 22  1  0  0  0  0
  7 23  1  0  0  0  0
  7 24  1  0  0  0  0
  8  9  2  0  0  0  0
  9 16  1  0  0  0  0
  9 10  1  0  0  0  0
 10 13  1  0  0  0  0
 10 11  2  0  0  0  0
 11 12  1  0  0  0  0
 13 14  2  0  0  0  0
 13 25  1  0  0  0  0
 14 15  1  0  0  0  0
 14 17  1  0  0  0  0
 15 16  2  0  0  0  0
 15 26  1  0  0  0  0
 16 27  1  0  0  0  0
 17 28  1  0  0  0  0
 17 29  1  0  0  0  0
 17 30  1  0  0  0  0
M  END
$$$$