1097659 1097658
 OpenBabel01211413393D

 35 38  0  0  0  0  0  0  0  0999 V2000
    2.4647    0.7886    0.2746 Cl  0  0  0  0  0  0  0  0  0  0  0  0
    3.9166   -0.1007    0.5299 C   0  0  0  0  0  0  0  0  0  0  0  0
    4.8917   -0.1165   -0.4680 C   0  0  0  0  0  0  0  0  0  0  0  0
    6.1002   -0.7677   -0.2335 C   0  0  0  0  0  0  0  0  0  0  0  0
    6.3143   -1.3963    0.9978 C   0  0  0  0  0  0  0  0  0  0  0  0
    5.3068   -1.4561    1.9753 C   0  0  0  0  0  0  0  0  0  0  0  0
    4.1053   -0.7865    1.7355 C   0  0  0  0  0  0  0  0  0  0  0  0
    5.5047   -2.2333    3.1279 N   0  0  0  0  0  0  0  0  0  0  0  0
    4.8332   -2.1606    3.8865 H   0  0  0  0  0  0  0  0  0  0  0  0
    6.7739   -2.6626    3.4681 C   0  0  0  0  0  0  0  0  0  0  0  0
    7.8651   -2.4728    2.6942 C   0  0  0  0  0  0  0  0  0  0  0  0
    7.6475   -1.9523    1.3199 C   0  0  0  0  0  0  0  0  0  0  0  0
    8.5417   -1.9531    0.4806 O   0  0  0  0  0  0  0  0  0  0  0  0
    9.2780   -2.7324    3.1468 C   0  0  0  0  0  0  0  0  0  0  0  0
    9.6888   -1.8426    4.3395 C   0  0  0  0  0  0  0  0  0  0  0  0
    8.6722   -1.7284    5.4881 C   0  0  0  0  0  0  0  0  0  0  0  0
    7.9012   -3.0067    5.6973 C   0  0  0  0  0  0  0  0  0  0  0  0
    6.9481   -3.4106    4.7360 C   0  0  0  0  0  0  0  0  0  0  0  0
    6.3039   -4.6474    4.8879 C   0  0  0  0  0  0  0  0  0  0  0  0
    6.6316   -5.4919    5.9461 C   0  0  0  0  0  0  0  0  0  0  0  0
    7.5881   -5.0994    6.8818 C   0  0  0  0  0  0  0  0  0  0  0  0
    8.2112   -3.8558    6.7678 C   0  0  0  0  0  0  0  0  0  0  0  0
    4.7277    0.3901   -1.4157 H   0  0  0  0  0  0  0  0  0  0  0  0
    6.8778   -0.7705   -0.9951 H   0  0  0  0  0  0  0  0  0  0  0  0
    3.3229   -0.7748    2.4883 H   0  0  0  0  0  0  0  0  0  0  0  0
    9.9950   -2.5561    2.3366 H   0  0  0  0  0  0  0  0  0  0  0  0
    9.3957   -3.7918    3.4094 H   0  0  0  0  0  0  0  0  0  0  0  0
    9.9098   -0.8284    3.9817 H   0  0  0  0  0  0  0  0  0  0  0  0
   10.6315   -2.2348    4.7410 H   0  0  0  0  0  0  0  0  0  0  0  0
    7.9622   -0.9152    5.2870 H   0  0  0  0  0  0  0  0  0  0  0  0
    9.1889   -1.4305    6.4099 H   0  0  0  0  0  0  0  0  0  0  0  0
    5.6012   -4.9929    4.1297 H   0  0  0  0  0  0  0  0  0  0  0  0
    6.1723   -6.4741    6.0195 H   0  0  0  0  0  0  0  0  0  0  0  0
    7.8689   -5.7748    7.6858 H   0  0  0  0  0  0  0  0  0  0  0  0
    8.9742   -3.5767    7.4907 H   0  0  0  0  0  0  0  0  0  0  0  0
  1  2  1  0  0  0  0
  2  3  2  0  0  0  0
  2  7  1  0  0  0  0
  3  4  1  0  0  0  0
  3 23  1  0  0  0  0
  4  5  2  0  0  0  0
  4 24  1  0  0  0  0
  5  6  1  0  0  0  0
  5 12  1  0  0  0  0
  6  8  1  0  0  0  0
  6  7  2  0  0  0  0
  7 25  1  0  0  0  0
  8 10  1  0  0  0  0
  8  9  1  0  0  0  0
 10 11  2  0  0  0  0
 10 18  1  0  0  0  0
 11 12  1  0  0  0  0
 11 14  1  0  0  0  0
 12 13  2  0  0  0  0
 14 15  1  0  0  0  0
 14 26  1  0  0  0  0
 14 27  1  0  0  0  0
 15 16  1  0  0  0  0
 15 28  1  0  0  0  0
 15 29  1  0  0  0  0
 16 17  1  0  0  0  0
 16 30  1  0  0  0  0
 16 31  1  0  0  0  0
 17 22  1  0  0  0  0
 17 18  2  0  0  0  0
 18 19  1  0  0  0  0
 19 20  2  0  0  0  0
 19 32  1  0  0  0  0
 20 21  1  0  0  0  0
 20 33  1  0  0  0  0
 21 22  2  0  0  0  0
 21 34  1  0  0  0  0
 22 35  1  0  0  0  0
M  END
$$$$