598492 598491
 OpenBabel01211413273D

 51 53  0  0  0  0  0  0  0  0999 V2000
    3.0668   -1.7278   -0.2558 O   0  0  0  0  0  0  0  0  0  0  0  0
    2.3289   -0.7512   -0.1413 C   0  0  0  0  0  0  0  0  0  0  0  0
    1.0134   -0.9404   -0.7784 C   0  0  0  0  0  0  0  0  0  0  0  0
    0.6423   -0.1411   -1.8705 C   0  0  0  0  0  0  0  0  0  0  0  0
   -0.6000   -0.3210   -2.4827 C   0  0  0  0  0  0  0  0  0  0  0  0
   -1.4503   -1.3387   -2.0532 C   0  0  0  0  0  0  0  0  0  0  0  0
   -1.0518   -2.1943   -1.0255 C   0  0  0  0  0  0  0  0  0  0  0  0
    0.1800   -2.0012   -0.3831 C   0  0  0  0  0  0  0  0  0  0  0  0
    0.5380   -2.9703    0.6730 C   0  0  0  0  0  0  0  0  0  0  0  0
    0.2967   -4.1652    0.6493 O   0  0  0  0  0  0  0  0  0  0  0  0
    1.0518   -2.3729    1.7592 O   0  0  0  0  0  0  0  0  0  0  0  0
    2.6976    0.4490    0.5226 N   0  0  0  0  0  0  0  0  0  0  0  0
    1.8969    1.7300    0.4312 C   0  0  0  0  0  0  0  0  0  0  0  0
    0.4185    1.6319    0.8939 C   0  0  0  0  0  0  0  0  0  0  0  0
    0.2193    1.6954    2.4036 C   0  0  0  0  0  0  0  0  0  0  0  0
    0.8381    2.9521    2.9929 C   0  0  0  0  0  0  0  0  0  0  0  0
    2.3100    3.0477    2.6158 C   0  0  0  0  0  0  0  0  0  0  0  0
    2.4900    3.0061    1.0950 C   0  0  0  0  0  0  0  0  0  0  0  0
    4.1281    0.5111    0.9652 C   0  0  0  0  0  0  0  0  0  0  0  0
    4.5095   -0.4929    2.0763 C   0  0  0  0  0  0  0  0  0  0  0  0
    5.3276   -1.7133    1.6641 C   0  0  0  0  0  0  0  0  0  0  0  0
    6.4278   -1.3776    0.6689 C   0  0  0  0  0  0  0  0  0  0  0  0
    5.8798   -0.6712   -0.5615 C   0  0  0  0  0  0  0  0  0  0  0  0
    5.1313    0.6103   -0.2041 C   0  0  0  0  0  0  0  0  0  0  0  0
    1.3152    0.6216   -2.2511 H   0  0  0  0  0  0  0  0  0  0  0  0
   -0.8996    0.3252   -3.3045 H   0  0  0  0  0  0  0  0  0  0  0  0
   -2.4153   -1.4825   -2.5339 H   0  0  0  0  0  0  0  0  0  0  0  0
   -1.7029   -3.0118   -0.7209 H   0  0  0  0  0  0  0  0  0  0  0  0
    1.3068   -3.1180    2.3421 H   0  0  0  0  0  0  0  0  0  0  0  0
    1.8956    1.9540   -0.6413 H   0  0  0  0  0  0  0  0  0  0  0  0
   -0.0957    0.7429    0.5419 H   0  0  0  0  0  0  0  0  0  0  0  0
   -0.1246    2.4758    0.4442 H   0  0  0  0  0  0  0  0  0  0  0  0
   -0.8551    1.6848    2.6238 H   0  0  0  0  0  0  0  0  0  0  0  0
    0.6525    0.8048    2.8724 H   0  0  0  0  0  0  0  0  0  0  0  0
    0.3044    3.8359    2.6195 H   0  0  0  0  0  0  0  0  0  0  0  0
    0.7233    2.9491    4.0822 H   0  0  0  0  0  0  0  0  0  0  0  0
    2.7238    3.9825    3.0103 H   0  0  0  0  0  0  0  0  0  0  0  0
    2.8583    2.2286    3.0940 H   0  0  0  0  0  0  0  0  0  0  0  0
    1.9616    3.8764    0.6793 H   0  0  0  0  0  0  0  0  0  0  0  0
    3.5368    3.1707    0.8209 H   0  0  0  0  0  0  0  0  0  0  0  0
    4.2278    1.4578    1.4914 H   0  0  0  0  0  0  0  0  0  0  0  0
    3.6216   -0.8074    2.6371 H   0  0  0  0  0  0  0  0  0  0  0  0
    5.1320    0.0553    2.7995 H   0  0  0  0  0  0  0  0  0  0  0  0
    5.7793   -2.1568    2.5602 H   0  0  0  0  0  0  0  0  0  0  0  0
    4.6782   -2.4907    1.2525 H   0  0  0  0  0  0  0  0  0  0  0  0
    7.1813   -0.7436    1.1516 H   0  0  0  0  0  0  0  0  0  0  0  0
    6.9378   -2.2996    0.3655 H   0  0  0  0  0  0  0  0  0  0  0  0
    6.7105   -0.4250   -1.2343 H   0  0  0  0  0  0  0  0  0  0  0  0
    5.2360   -1.3507   -1.1276 H   0  0  0  0  0  0  0  0  0  0  0  0
    5.8933    1.3504    0.0779 H   0  0  0  0  0  0  0  0  0  0  0  0
    4.6455    1.0139   -1.1008 H   0  0  0  0  0  0  0  0  0  0  0  0
  1  2  2  0  0  0  0
  2 12  1  0  0  0  0
  2  3  1  0  0  0  0
  3  4  2  0  0  0  0
  3  8  1  0  0  0  0
  4  5  1  0  0  0  0
  4 25  1  0  0  0  0
  5  6  2  0  0  0  0
  5 26  1  0  0  0  0
  6  7  1  0  0  0  0
  6 27  1  0  0  0  0
  7  8  2  0  0  0  0
  7 28  1  0  0  0  0
  8  9  1  0  0  0  0
  9 11  1  0  0  0  0
  9 10  2  0  0  0  0
 11 29  1  0  0  0  0
 12 19  1  0  0  0  0
 12 13  1  0  0  0  0
 13 18  1  0  0  0  0
 13 14  1  0  0  0  0
 13 30  1  0  0  0  0
 14 15  1  0  0  0  0
 14 31  1  0  0  0  0
 14 32  1  0  0  0  0
 15 16  1  0  0  0  0
 15 33  1  0  0  0  0
 15 34  1  0  0  0  0
 16 17  1  0  0  0  0
 16 35  1  0  0  0  0
 16 36  1  0  0  0  0
 17 18  1  0  0  0  0
 17 37  1  0  0  0  0
 17 38  1  0  0  0  0
 18 39  1  0  0  0  0
 18 40  1  0  0  0  0
 19 24  1  0  0  0  0
 19 20  1  0  0  0  0
 19 41  1  0  0  0  0
 20 21  1  0  0  0  0
 20 42  1  0  0  0  0
 20 43  1  0  0  0  0
 21 22  1  0  0  0  0
 21 44  1  0  0  0  0
 21 45  1  0  0  0  0
 22 23  1  0  0  0  0
 22 46  1  0  0  0  0
 22 47  1  0  0  0  0
 23 24  1  0  0  0  0
 23 48  1  0  0  0  0
 23 49  1  0  0  0  0
 24 50  1  0  0  0  0
 24 51  1  0  0  0  0
M  END
$$$$