25473370 25473369
 OpenBabel01211414033D

 58 61  0  0  0  0  0  0  0  0999 V2000
    3.0852   -4.0444    3.6023 C   0  0  0  0  0  0  0  0  0  0  0  0
    3.1277   -3.5993    2.3394 C   0  0  0  0  0  0  0  0  0  0  0  0
    3.6280   -2.2483    1.9343 C   0  0  0  0  0  0  0  0  0  0  0  0
    5.0136   -2.3929    1.5712 N   0  0  0  0  0  0  0  0  0  0  0  0
    5.7497   -1.2929    1.2213 C   0  0  0  0  0  0  0  0  0  0  0  0
    5.2626   -0.1674    1.1572 O   0  0  0  0  0  0  0  0  0  0  0  0
    7.0926   -1.5565    0.9633 N   0  0  0  0  0  0  0  0  0  0  0  0
    7.7878   -2.7037    1.5325 C   0  0  0  0  0  0  0  0  0  0  0  0
    8.3582   -2.3768    2.9066 C   0  0  0  0  0  0  0  0  0  0  0  0
    9.6851   -1.6397    2.8028 C   0  0  0  0  0  0  0  0  0  0  0  0
    9.6316   -0.1993    2.4893 N   0  0  0  0  0  0  0  0  0  0  0  0
    8.4201    0.3772    1.8672 C   0  0  0  0  0  0  0  0  0  0  0  0
    7.9393   -0.4066    0.6304 C   0  0  0  0  0  0  0  0  0  0  0  0
   10.5392    0.6669    3.1306 C   0  0  0  0  0  0  0  0  0  0  0  0
   10.1636    1.8662    3.4899 N   0  0  0  0  0  0  0  0  0  0  0  0
   11.0052    2.7450    4.1936 C   0  0  0  0  0  0  0  0  0  0  0  0
   10.9647    4.1024    3.8566 C   0  0  0  0  0  0  0  0  0  0  0  0
   11.7403    5.0530    4.5463 C   0  0  0  0  0  0  0  0  0  0  0  0
   12.5433    4.6311    5.6176 C   0  0  0  0  0  0  0  0  0  0  0  0
   12.5805    3.2870    5.9815 C   0  0  0  0  0  0  0  0  0  0  0  0
   11.8305    2.3547    5.2601 C   0  0  0  0  0  0  0  0  0  0  0  0
   11.9662    1.0323    5.6250 O   0  0  0  0  0  0  0  0  0  0  0  0
   12.5274    0.2805    4.6230 C   0  0  0  0  0  0  0  0  0  0  0  0
   11.9294    0.1531    3.3724 C   0  0  0  0  0  0  0  0  0  0  0  0
   12.5896   -0.5400    2.3508 C   0  0  0  0  0  0  0  0  0  0  0  0
   13.8178   -1.1642    2.5963 C   0  0  0  0  0  0  0  0  0  0  0  0
   14.4827   -1.9510    1.5067 C   0  0  0  0  0  0  0  0  0  0  0  0
   14.3729   -1.0916    3.8806 C   0  0  0  0  0  0  0  0  0  0  0  0
   13.7356   -0.3634    4.8888 C   0  0  0  0  0  0  0  0  0  0  0  0
   11.7294    6.5070    4.1471 C   0  0  0  0  0  0  0  0  0  0  0  0
   11.3655    7.3266    5.1725 F   0  0  0  0  0  0  0  0  0  0  0  0
   12.9583    6.9399    3.7466 F   0  0  0  0  0  0  0  0  0  0  0  0
   10.8824    6.7931    3.1205 F   0  0  0  0  0  0  0  0  0  0  0  0
    2.7027   -5.0335    3.8331 H   0  0  0  0  0  0  0  0  0  0  0  0
    3.4412   -3.4368    4.4296 H   0  0  0  0  0  0  0  0  0  0  0  0
    2.7590   -4.2407    1.5421 H   0  0  0  0  0  0  0  0  0  0  0  0
    3.5445   -1.5158    2.7449 H   0  0  0  0  0  0  0  0  0  0  0  0
    3.0654   -1.8707    1.0740 H   0  0  0  0  0  0  0  0  0  0  0  0
    5.2489   -3.2258    1.0556 H   0  0  0  0  0  0  0  0  0  0  0  0
    8.5703   -3.0139    0.8300 H   0  0  0  0  0  0  0  0  0  0  0  0
    7.1148   -3.5589    1.6323 H   0  0  0  0  0  0  0  0  0  0  0  0
    7.6417   -1.8266    3.5271 H   0  0  0  0  0  0  0  0  0  0  0  0
    8.5529   -3.3293    3.4161 H   0  0  0  0  0  0  0  0  0  0  0  0
   10.1755   -1.7731    3.7756 H   0  0  0  0  0  0  0  0  0  0  0  0
   10.3208   -2.1379    2.0618 H   0  0  0  0  0  0  0  0  0  0  0  0
    7.6277    0.4805    2.6165 H   0  0  0  0  0  0  0  0  0  0  0  0
    8.6611    1.3860    1.5086 H   0  0  0  0  0  0  0  0  0  0  0  0
    7.3575    0.2669   -0.0102 H   0  0  0  0  0  0  0  0  0  0  0  0
    8.7860   -0.7621    0.0309 H   0  0  0  0  0  0  0  0  0  0  0  0
   10.3169    4.4141    3.0387 H   0  0  0  0  0  0  0  0  0  0  0  0
   13.1481    5.3515    6.1667 H   0  0  0  0  0  0  0  0  0  0  0  0
   13.2091    2.9593    6.8046 H   0  0  0  0  0  0  0  0  0  0  0  0
   12.1305   -0.6046    1.3660 H   0  0  0  0  0  0  0  0  0  0  0  0
   15.5306   -2.1568    1.7460 H   0  0  0  0  0  0  0  0  0  0  0  0
   14.4631   -1.3913    0.5656 H   0  0  0  0  0  0  0  0  0  0  0  0
   13.9634   -2.9042    1.3660 H   0  0  0  0  0  0  0  0  0  0  0  0
   15.3139   -1.5910    4.1018 H   0  0  0  0  0  0  0  0  0  0  0  0
   14.1853   -0.2888    5.8749 H   0  0  0  0  0  0  0  0  0  0  0  0
  1  2  2  0  0  0  0
  1 34  1  0  0  0  0
  1 35  1  0  0  0  0
  2  3  1  0  0  0  0
  2 36  1  0  0  0  0
  3  4  1  0  0  0  0
  3 37  1  0  0  0  0
  3 38  1  0  0  0  0
  4  5  1  0  0  0  0
  4 39  1  0  0  0  0
  5  7  1  0  0  0  0
  5  6  2  0  0  0  0
  7 13  1  0  0  0  0
  7  8  1  0  0  0  0
  8  9  1  0  0  0  0
  8 40  1  0  0  0  0
  8 41  1  0  0  0  0
  9 10  1  0  0  0  0
  9 42  1  0  0  0  0
  9 43  1  0  0  0  0
 10 11  1  0  0  0  0
 10 44  1  0  0  0  0
 10 45  1  0  0  0  0
 11 12  1  0  0  0  0
 11 14  1  0  0  0  0
 12 13  1  0  0  0  0
 12 46  1  0  0  0  0
 12 47  1  0  0  0  0
 13 48  1  0  0  0  0
 13 49  1  0  0  0  0
 14 24  1  0  0  0  0
 14 15  2  0  0  0  0
 15 16  1  0  0  0  0
 16 21  1  0  0  0  0
 16 17  2  0  0  0  0
 17 18  1  0  0  0  0
 17 50  1  0  0  0  0
 18 19  2  0  0  0  0
 18 30  1  0  0  0  0
 19 20  1  0  0  0  0
 19 51  1  0  0  0  0
 20 21  2  0  0  0  0
 20 52  1  0  0  0  0
 21 22  1  0  0  0  0
 22 23  1  0  0  0  0
 23 29  1  0  0  0  0
 23 24  2  0  0  0  0
 24 25  1  0  0  0  0
 25 26  2  0  0  0  0
 25 53  1  0  0  0  0
 26 28  1  0  0  0  0
 26 27  1  0  0  0  0
 27 54  1  0  0  0  0
 27 55  1  0  0  0  0
 27 56  1  0  0  0  0
 28 29  2  0  0  0  0
 28 57  1  0  0  0  0
 29 58  1  0  0  0  0
 30 33  1  0  0  0  0
 30 32  1  0  0  0  0
 30 31  1  0  0  0  0
M  END
$$$$