33865 33864
 OpenBabel01211413143D

 29 28  0  0  1  0  0  0  0  0999 V2000
    8.0419   -3.7374    2.2635 C   0  0  0  0  0  0  0  0  0  0  0  0
    7.5226   -3.2441    1.1313 C   0  0  0  0  0  0  0  0  0  0  0  0
    8.2113   -2.2309    0.2692 C   0  0  0  0  0  0  0  0  0  0  0  0
    7.4102   -1.0484    0.1727 O   0  0  0  0  0  0  0  0  0  0  0  0
    7.6268   -0.1194    1.1462 C   0  0  0  0  0  0  0  0  0  0  0  0
    8.3476   -0.2686    2.1224 O   0  0  0  0  0  0  0  0  0  0  0  0
    6.8090    1.1129    0.8614 C   0  0  0  0  0  0  0  0  0  0  0  0
    7.3894    2.3417    1.5509 C   0  0  3  0  0  0  0  0  0  0  0  0
    7.4095    2.2476    3.0835 C   0  0  0  0  0  0  0  0  0  0  0  0
    8.3714    2.5957    3.7608 O   0  0  0  0  0  0  0  0  0  0  0  0
    6.2051    1.8335    3.5530 O   0  0  0  0  0  0  0  0  0  0  0  0
    6.0694    1.7329    4.9744 C   0  0  0  0  0  0  0  0  0  0  0  0
    5.2715    2.9073    5.4515 C   0  0  0  0  0  0  0  0  0  0  0  0
    3.9744    2.8605    5.7844 C   0  0  0  0  0  0  0  0  0  0  0  0
    8.6715    2.6407    0.9940 O   0  0  0  0  0  0  0  0  0  0  0  0
    7.5023   -4.4696    2.8555 H   0  0  0  0  0  0  0  0  0  0  0  0
    9.0085   -3.4068    2.6348 H   0  0  0  0  0  0  0  0  0  0  0  0
    6.5473   -3.5883    0.7981 H   0  0  0  0  0  0  0  0  0  0  0  0
    8.3071   -2.6361   -0.7440 H   0  0  0  0  0  0  0  0  0  0  0  0
    9.2270   -1.9965    0.6096 H   0  0  0  0  0  0  0  0  0  0  0  0
    5.7796    0.9201    1.1814 H   0  0  0  0  0  0  0  0  0  0  0  0
    6.8163    1.2815   -0.2223 H   0  0  0  0  0  0  0  0  0  0  0  0
    6.7567    3.2060    1.3155 H   0  0  0  0  0  0  0  0  0  0  0  0
    7.0322    1.6841    5.4950 H   0  0  0  0  0  0  0  0  0  0  0  0
    5.5477    0.7924    5.1822 H   0  0  0  0  0  0  0  0  0  0  0  0
    5.8078    3.8496    5.5383 H   0  0  0  0  0  0  0  0  0  0  0  0
    3.3976    1.9439    5.7058 H   0  0  0  0  0  0  0  0  0  0  0  0
    3.4564    3.7501    6.1299 H   0  0  0  0  0  0  0  0  0  0  0  0
    9.2701    2.7965    1.7544 H   0  0  0  0  0  0  0  0  0  0  0  0
  1  2  2  0  0  0  0
  1 16  1  0  0  0  0
  1 17  1  0  0  0  0
  2  3  1  0  0  0  0
  2 18  1  0  0  0  0
  3  4  1  0  0  0  0
  3 19  1  0  0  0  0
  3 20  1  0  0  0  0
  4  5  1  0  0  0  0
  5  7  1  0  0  0  0
  5  6  2  0  0  0  0
  7  8  1  0  0  0  0
  7 21  1  0  0  0  0
  7 22  1  0  0  0  0
  8 15  1  0  0  0  0
  8  9  1  0  0  0  0
  8 23  1  0  0  0  0
  9 11  1  0  0  0  0
  9 10  2  0  0  0  0
 11 12  1  0  0  0  0
 12 13  1  0  0  0  0
 12 24  1  0  0  0  0
 12 25  1  0  0  0  0
 13 14  2  0  0  0  0
 13 26  1  0  0  0  0
 14 27  1  0  0  0  0
 14 28  1  0  0  0  0
 15 29  1  0  0  0  0
M  END
$$$$