6880621 6880620
 OpenBabel01211413573D

 19 18  0  0  1  0  0  0  0  0999 V2000
    1.0155   -2.0018   -0.3887 C   0  0  0  0  0  0  0  0  0  0  0  0
    1.9509   -1.0271   -1.0957 C   0  0  3  0  0  0  0  0  0  0  0  0
    2.2236    0.1833   -0.2354 C   0  0  0  0  0  0  0  0  0  0  0  0
    3.3388    0.5638    0.0938 O   0  0  0  0  0  0  0  0  0  0  0  0
    1.0605    0.8233    0.0718 O   0  0  0  0  0  0  0  0  0  0  0  0
    1.1839    2.0116    0.8687 C   0  0  0  0  0  0  0  0  0  0  0  0
    1.2526    1.6525    2.3411 C   0  0  0  0  0  0  0  0  0  0  0  0
    3.2398   -1.7082   -1.4962 C   0  0  0  0  0  0  0  0  0  0  0  0
    3.3650   -2.9232   -1.6302 O   0  0  0  0  0  0  0  0  0  0  0  0
    0.8088   -2.8767   -1.0145 H   0  0  0  0  0  0  0  0  0  0  0  0
    0.0552   -1.5334   -0.1486 H   0  0  0  0  0  0  0  0  0  0  0  0
    1.4543   -2.3582    0.5502 H   0  0  0  0  0  0  0  0  0  0  0  0
    1.4951   -0.6676   -2.0261 H   0  0  0  0  0  0  0  0  0  0  0  0
    0.2909    2.6160    0.6790 H   0  0  0  0  0  0  0  0  0  0  0  0
    2.0492    2.6083    0.5581 H   0  0  0  0  0  0  0  0  0  0  0  0
    0.3918    1.0398    2.6284 H   0  0  0  0  0  0  0  0  0  0  0  0
    1.2676    2.5542    2.9597 H   0  0  0  0  0  0  0  0  0  0  0  0
    2.1492    1.0645    2.5609 H   0  0  0  0  0  0  0  0  0  0  0  0
    4.0702   -1.0376   -1.7802 H   0  0  0  0  0  0  0  0  0  0  0  0
  1  2  1  0  0  0  0
  1 10  1  0  0  0  0
  1 11  1  0  0  0  0
  1 12  1  0  0  0  0
  2  8  1  0  0  0  0
  2  3  1  0  0  0  0
  2 13  1  0  0  0  0
  3  5  1  0  0  0  0
  3  4  2  0  0  0  0
  5  6  1  0  0  0  0
  6  7  1  0  0  0  0
  6 14  1  0  0  0  0
  6 15  1  0  0  0  0
  7 16  1  0  0  0  0
  7 17  1  0  0  0  0
  7 18  1  0  0  0  0
  8  9  2  0  0  0  0
  8 19  1  0  0  0  0
M  END
$$$$