4367087 4367086
 OpenBabel01211413523D

 27 26  0  0  0  0  0  0  0  0999 V2000
    0.7481    0.2737    2.3767 C   0  0  0  0  0  0  0  0  0  0  0  0
    1.4708   -0.3355    1.1777 C   0  0  0  0  0  0  0  0  0  0  0  0
    1.7576   -1.7278    1.5168 N   0  0  0  0  0  0  0  0  0  0  0  0
    2.7671   -2.2762    0.9653 C   0  0  0  0  0  0  0  0  0  0  0  0
    3.0945   -3.7072    1.2693 C   0  0  0  0  0  0  0  0  0  0  0  0
    2.2275   -4.4597    2.2920 C   0  0  0  0  0  0  0  0  0  0  0  0
    2.0885   -3.7743    3.6493 C   0  0  0  0  0  0  0  0  0  0  0  0
    1.1494   -2.8142    3.7183 F   0  0  0  0  0  0  0  0  0  0  0  0
    1.7612   -4.6790    4.6095 F   0  0  0  0  0  0  0  0  0  0  0  0
    3.2673   -3.2217    4.0341 F   0  0  0  0  0  0  0  0  0  0  0  0
    0.8075   -4.7366    1.8136 C   0  0  0  0  0  0  0  0  0  0  0  0
    0.8780   -5.4800    0.6715 F   0  0  0  0  0  0  0  0  0  0  0  0
    0.1214   -5.4936    2.7008 F   0  0  0  0  0  0  0  0  0  0  0  0
    0.0543   -3.6661    1.5269 F   0  0  0  0  0  0  0  0  0  0  0  0
    2.9515   -5.7436    2.4547 O   0  0  0  0  0  0  0  0  0  0  0  0
    0.5811   -0.3039   -0.0596 C   0  0  0  0  0  0  0  0  0  0  0  0
    0.4687    1.3140    2.1843 H   0  0  0  0  0  0  0  0  0  0  0  0
    1.3883    0.2493    3.2659 H   0  0  0  0  0  0  0  0  0  0  0  0
   -0.1624   -0.2876    2.6175 H   0  0  0  0  0  0  0  0  0  0  0  0
    2.3911    0.2320    0.9932 H   0  0  0  0  0  0  0  0  0  0  0  0
    3.4272   -1.7516    0.2504 H   0  0  0  0  0  0  0  0  0  0  0  0
    4.1416   -3.7181    1.6015 H   0  0  0  0  0  0  0  0  0  0  0  0
    3.0999   -4.2474    0.3138 H   0  0  0  0  0  0  0  0  0  0  0  0
    2.5481   -6.3929    1.8454 H   0  0  0  0  0  0  0  0  0  0  0  0
   -0.3284   -0.8963    0.0913 H   0  0  0  0  0  0  0  0  0  0  0  0
    1.1053   -0.7235   -0.9246 H   0  0  0  0  0  0  0  0  0  0  0  0
    0.2869    0.7213   -0.3046 H   0  0  0  0  0  0  0  0  0  0  0  0
  1  2  1  0  0  0  0
  1 17  1  0  0  0  0
  1 18  1  0  0  0  0
  1 19  1  0  0  0  0
  2 16  1  0  0  0  0
  2  3  1  0  0  0  0
  2 20  1  0  0  0  0
  3  4  2  0  0  0  0
  4  5  1  0  0  0  0
  4 21  1  0  0  0  0
  5  6  1  0  0  0  0
  5 22  1  0  0  0  0
  5 23  1  0  0  0  0
  6 15  1  0  0  0  0
  6 11  1  0  0  0  0
  6  7  1  0  0  0  0
  7 10  1  0  0  0  0
  7  9  1  0  0  0  0
  7  8  1  0  0  0  0
 11 14  1  0  0  0  0
 11 13  1  0  0  0  0
 11 12  1  0  0  0  0
 15 24  1  0  0  0  0
 16 25  1  0  0  0  0
 16 26  1  0  0  0  0
 16 27  1  0  0  0  0
M  END
$$$$