5419836 5419835
 OpenBabel01211413543D

 76 78  0  0  0  0  0  0  0  0999 V2000
    3.5398    4.6684    2.5736 C   0  0  0  0  0  0  0  0  0  0  0  0
    2.5277    3.5495    2.2264 C   0  0  0  0  0  0  0  0  0  0  0  0
    2.7358    2.3769    3.2403 C   0  0  0  0  0  0  0  0  0  0  0  0
    2.3650    2.8304    4.5540 C   0  0  0  0  0  0  0  0  0  0  0  0
    2.7381    2.2414    5.7448 C   0  0  0  0  0  0  0  0  0  0  0  0
    3.3969    1.0409    5.5929 C   0  0  0  0  0  0  0  0  0  0  0  0
    3.7707    0.4478    4.3224 C   0  0  0  0  0  0  0  0  0  0  0  0
    3.4195    1.1008    3.0588 C   0  0  0  0  0  0  0  0  0  0  0  0
    3.9363    0.7181    1.8350 N   0  0  0  0  0  0  0  0  0  0  0  0
    3.2402   -0.1180    0.7669 P   0  0  3  0  0  0  0  0  0  0  0  0
    1.7595   -1.0377    1.0758 C   0  0  0  0  0  0  0  0  0  0  0  0
    0.7288   -0.3681    0.1662 C   0  0  0  0  0  0  0  0  0  0  0  0
    1.1931    0.5326   -0.7220 C   0  0  0  0  0  0  0  0  0  0  0  0
    2.6888    0.6469   -0.7847 C   0  0  0  0  0  0  0  0  0  0  0  0
    0.3894    1.4221   -1.6157 C   0  0  0  0  0  0  0  0  0  0  0  0
   -0.7052   -0.7449    0.3128 C   0  0  0  0  0  0  0  0  0  0  0  0
    4.6980   -0.9532    0.1783 C   0  0  0  0  0  0  0  0  0  0  0  0
    4.8403   -2.3438    0.2497 C   0  0  0  0  0  0  0  0  0  0  0  0
    5.9142   -2.9957   -0.3661 C   0  0  0  0  0  0  0  0  0  0  0  0
    6.8296   -2.2729   -1.1277 C   0  0  0  0  0  0  0  0  0  0  0  0
    6.6869   -0.8940   -1.2472 C   0  0  0  0  0  0  0  0  0  0  0  0
    5.6433   -0.2437   -0.5847 C   0  0  0  0  0  0  0  0  0  0  0  0
    4.6035   -0.8650    4.5684 C   0  0  0  0  0  0  0  0  0  0  0  0
    5.7107   -0.6836    5.6641 C   0  0  0  0  0  0  0  0  0  0  0  0
    3.6234   -1.9551    5.0737 C   0  0  0  0  0  0  0  0  0  0  0  0
    5.3511   -1.4455    3.3772 C   0  0  0  0  0  0  0  0  0  0  0  0
    2.5918    3.0095    7.0657 C   0  0  0  0  0  0  0  0  0  0  0  0
    1.1555    3.5459    7.2579 C   0  0  0  0  0  0  0  0  0  0  0  0
    2.9436    2.1833    8.3200 C   0  0  0  0  0  0  0  0  0  0  0  0
    3.5649    4.2168    7.0267 C   0  0  0  0  0  0  0  0  0  0  0  0
    1.0706    4.1087    2.2909 C   0  0  0  0  0  0  0  0  0  0  0  0
    2.7472    3.2551    0.7644 C   0  0  0  0  0  0  0  0  0  0  0  0
    3.3870    5.0839    3.5745 H   0  0  0  0  0  0  0  0  0  0  0  0
    3.4641    5.5053    1.8698 H   0  0  0  0  0  0  0  0  0  0  0  0
    4.5658    4.2846    2.5321 H   0  0  0  0  0  0  0  0  0  0  0  0
    1.8736    3.7908    4.6449 H   0  0  0  0  0  0  0  0  0  0  0  0
    3.6882    0.5373    6.5060 H   0  0  0  0  0  0  0  0  0  0  0  0
    1.4452   -1.0062    2.1208 H   0  0  0  0  0  0  0  0  0  0  0  0
    1.8605   -2.0837    0.7658 H   0  0  0  0  0  0  0  0  0  0  0  0
    3.0038    0.0319   -1.6370 H   0  0  0  0  0  0  0  0  0  0  0  0
    3.0742    1.6398   -1.0036 H   0  0  0  0  0  0  0  0  0  0  0  0
    0.6761    1.2944   -2.6612 H   0  0  0  0  0  0  0  0  0  0  0  0
    0.5576    2.4754   -1.3460 H   0  0  0  0  0  0  0  0  0  0  0  0
   -0.6880    1.2469   -1.5334 H   0  0  0  0  0  0  0  0  0  0  0  0
   -1.3103    0.1180    0.6108 H   0  0  0  0  0  0  0  0  0  0  0  0
   -0.8403   -1.5273    1.0638 H   0  0  0  0  0  0  0  0  0  0  0  0
   -1.0957   -1.1368   -0.6330 H   0  0  0  0  0  0  0  0  0  0  0  0
    4.1077   -2.9225    0.8037 H   0  0  0  0  0  0  0  0  0  0  0  0
    6.0208   -4.0702   -0.2596 H   0  0  0  0  0  0  0  0  0  0  0  0
    7.6444   -2.7811   -1.6314 H   0  0  0  0  0  0  0  0  0  0  0  0
    7.3734   -0.3187   -1.8615 H   0  0  0  0  0  0  0  0  0  0  0  0
    5.5245    0.8327   -0.6874 H   0  0  0  0  0  0  0  0  0  0  0  0
    6.3243    0.2029    5.4676 H   0  0  0  0  0  0  0  0  0  0  0  0
    6.3826   -1.5502    5.7036 H   0  0  0  0  0  0  0  0  0  0  0  0
    5.3100   -0.6011    6.6790 H   0  0  0  0  0  0  0  0  0  0  0  0
    2.8634   -2.1798    4.3109 H   0  0  0  0  0  0  0  0  0  0  0  0
    3.0859   -1.6498    5.9776 H   0  0  0  0  0  0  0  0  0  0  0  0
    4.1498   -2.8845    5.3161 H   0  0  0  0  0  0  0  0  0  0  0  0
    4.6244   -1.8159    2.6639 H   0  0  0  0  0  0  0  0  0  0  0  0
    5.9586   -2.3145    3.6602 H   0  0  0  0  0  0  0  0  0  0  0  0
    6.0245   -0.7180    2.9154 H   0  0  0  0  0  0  0  0  0  0  0  0
    0.8770    4.2830    6.4971 H   0  0  0  0  0  0  0  0  0  0  0  0
    1.0506    4.0513    8.2264 H   0  0  0  0  0  0  0  0  0  0  0  0
    0.4220    2.7328    7.2207 H   0  0  0  0  0  0  0  0  0  0  0  0
    3.9974    1.8796    8.3242 H   0  0  0  0  0  0  0  0  0  0  0  0
    2.3261    1.2803    8.3907 H   0  0  0  0  0  0  0  0  0  0  0  0
    2.7815    2.7675    9.2339 H   0  0  0  0  0  0  0  0  0  0  0  0
    4.6029    3.8852    6.8976 H   0  0  0  0  0  0  0  0  0  0  0  0
    3.5142    4.8012    7.9519 H   0  0  0  0  0  0  0  0  0  0  0  0
    3.3394    4.9017    6.2020 H   0  0  0  0  0  0  0  0  0  0  0  0
    0.8590    4.7756    1.4461 H   0  0  0  0  0  0  0  0  0  0  0  0
    0.8716    4.7071    3.1854 H   0  0  0  0  0  0  0  0  0  0  0  0
    0.3350    3.2952    2.2599 H   0  0  0  0  0  0  0  0  0  0  0  0
    2.6069    4.1411    0.1305 H   0  0  0  0  0  0  0  0  0  0  0  0
    1.9787    2.5552    0.4755 H   0  0  0  0  0  0  0  0  0  0  0  0
    3.7541    2.8883    0.5599 H   0  0  0  0  0  0  0  0  0  0  0  0
  1  2  1  0  0  0  0
  1 33  1  0  0  0  0
  1 34  1  0  0  0  0
  1 35  1  0  0  0  0
  2 32  1  0  0  0  0
  2 31  1  0  0  0  0
  2  3  1  0  0  0  0
  3  8  1  0  0  0  0
  3  4  2  0  0  0  0
  4  5  1  0  0  0  0
  4 36  1  0  0  0  0
  5  6  2  0  0  0  0
  5 27  1  0  0  0  0
  6  7  1  0  0  0  0
  6 37  1  0  0  0  0
  7  8  2  0  0  0  0
  7 23  1  0  0  0  0
  8  9  1  0  0  0  0
  9 10  2  0  0  0  0
 10 14  1  0  0  0  0
 10 11  1  0  0  0  0
 10 17  1  0  0  0  0
 11 12  1  0  0  0  0
 11 38  1  0  0  0  0
 11 39  1  0  0  0  0
 12 13  2  0  0  0  0
 12 16  1  0  0  0  0
 13 14  1  0  0  0  0
 13 15  1  0  0  0  0
 14 40  1  0  0  0  0
 14 41  1  0  0  0  0
 15 42  1  0  0  0  0
 15 43  1  0  0  0  0
 15 44  1  0  0  0  0
 16 45  1  0  0  0  0
 16 46  1  0  0  0  0
 16 47  1  0  0  0  0
 17 18  2  0  0  0  0
 17 22  1  0  0  0  0
 18 19  1  0  0  0  0
 18 48  1  0  0  0  0
 19 20  2  0  0  0  0
 19 49  1  0  0  0  0
 20 21  1  0  0  0  0
 20 50  1  0  0  0  0
 21 22  2  0  0  0  0
 21 51  1  0  0  0  0
 22 52  1  0  0  0  0
 23 26  1  0  0  0  0
 23 25  1  0  0  0  0
 23 24  1  0  0  0  0
 24 53  1  0  0  0  0
 24 54  1  0  0  0  0
 24 55  1  0  0  0  0
 25 56  1  0  0  0  0
 25 57  1  0  0  0  0
 25 58  1  0  0  0  0
 26 59  1  0  0  0  0
 26 60  1  0  0  0  0
 26 61  1  0  0  0  0
 27 30  1  0  0  0  0
 27 29  1  0  0  0  0
 27 28  1  0  0  0  0
 28 62  1  0  0  0  0
 28 63  1  0  0  0  0
 28 64  1  0  0  0  0
 29 65  1  0  0  0  0
 29 66  1  0  0  0  0
 29 67  1  0  0  0  0
 30 68  1  0  0  0  0
 30 69  1  0  0  0  0
 30 70  1  0  0  0  0
 31 71  1  0  0  0  0
 31 72  1  0  0  0  0
 31 73  1  0  0  0  0
 32 74  1  0  0  0  0
 32 75  1  0  0  0  0
 32 76  1  0  0  0  0
M  END
$$$$