11552808 11552807
 OpenBabel01211413583D

 35 36  0  0  0  0  0  0  0  0999 V2000
    2.4235    1.2280    2.4202 C   0  0  0  0  0  0  0  0  0  0  0  0
    2.2537    0.7509    0.9861 C   0  0  0  0  0  0  0  0  0  0  0  0
    2.8177    1.7402   -0.0375 C   0  0  0  0  0  0  0  0  0  0  0  0
    4.3129    1.9071    0.0621 C   0  0  0  0  0  0  0  0  0  0  0  0
    5.0216    3.0248    0.3167 C   0  0  0  0  0  0  0  0  0  0  0  0
    4.3690    4.3304    0.5795 C   0  0  0  0  0  0  0  0  0  0  0  0
    4.0094    4.6929    1.8839 C   0  0  0  0  0  0  0  0  0  0  0  0
    3.4352    5.9460    2.1367 C   0  0  0  0  0  0  0  0  0  0  0  0
    3.2232    6.8409    1.0908 C   0  0  0  0  0  0  0  0  0  0  0  0
    3.5748    6.4872   -0.2096 C   0  0  0  0  0  0  0  0  0  0  0  0
    4.1448    5.2344   -0.4673 C   0  0  0  0  0  0  0  0  0  0  0  0
    6.4987    2.8696    0.2976 C   0  0  0  0  0  0  0  0  0  0  0  0
    7.1994    2.5550    1.4689 C   0  0  0  0  0  0  0  0  0  0  0  0
    8.5871    2.3805    1.4348 C   0  0  0  0  0  0  0  0  0  0  0  0
    9.2797    2.5161    0.2332 C   0  0  0  0  0  0  0  0  0  0  0  0
    8.5906    2.8264   -0.9372 C   0  0  0  0  0  0  0  0  0  0  0  0
    7.2047    3.0041   -0.9067 C   0  0  0  0  0  0  0  0  0  0  0  0
    1.9260    0.5414    3.1119 H   0  0  0  0  0  0  0  0  0  0  0  0
    1.9839    2.2213    2.5527 H   0  0  0  0  0  0  0  0  0  0  0  0
    3.4805    1.2762    2.6992 H   0  0  0  0  0  0  0  0  0  0  0  0
    1.1842    0.6095    0.7858 H   0  0  0  0  0  0  0  0  0  0  0  0
    2.7261   -0.2326    0.8693 H   0  0  0  0  0  0  0  0  0  0  0  0
    2.2911    2.6971    0.0536 H   0  0  0  0  0  0  0  0  0  0  0  0
    2.5936    1.3622   -1.0421 H   0  0  0  0  0  0  0  0  0  0  0  0
    4.8611    0.9807   -0.1208 H   0  0  0  0  0  0  0  0  0  0  0  0
    4.1791    4.0114    2.7101 H   0  0  0  0  0  0  0  0  0  0  0  0
    3.1643    6.2228    3.1520 H   0  0  0  0  0  0  0  0  0  0  0  0
    2.7892    7.8191    1.2907 H   0  0  0  0  0  0  0  0  0  0  0  0
    3.4147    7.1874   -1.0251 H   0  0  0  0  0  0  0  0  0  0  0  0
    4.4191    4.9746   -1.4843 H   0  0  0  0  0  0  0  0  0  0  0  0
    6.6698    2.4372    2.4097 H   0  0  0  0  0  0  0  0  0  0  0  0
    9.1255    2.1371    2.3469 H   0  0  0  0  0  0  0  0  0  0  0  0
   10.3587    2.3777    0.2078 H   0  0  0  0  0  0  0  0  0  0  0  0
    9.1292    2.9293   -1.8753 H   0  0  0  0  0  0  0  0  0  0  0  0
    6.6769    3.2417   -1.8256 H   0  0  0  0  0  0  0  0  0  0  0  0
  1  2  1  0  0  0  0
  1 18  1  0  0  0  0
  1 19  1  0  0  0  0
  1 20  1  0  0  0  0
  2  3  1  0  0  0  0
  2 21  1  0  0  0  0
  2 22  1  0  0  0  0
  3  4  1  0  0  0  0
  3 23  1  0  0  0  0
  3 24  1  0  0  0  0
  4  5  2  3  0  0  0
  4 25  1  0  0  0  0
  5 12  1  0  0  0  0
  5  6  1  0  0  0  0
  6  7  2  0  0  0  0
  6 11  1  0  0  0  0
  7  8  1  0  0  0  0
  7 26  1  0  0  0  0
  8  9  2  0  0  0  0
  8 27  1  0  0  0  0
  9 10  1  0  0  0  0
  9 28  1  0  0  0  0
 10 11  2  0  0  0  0
 10 29  1  0  0  0  0
 11 30  1  0  0  0  0
 12 13  2  0  0  0  0
 12 17  1  0  0  0  0
 13 14  1  0  0  0  0
 13 31  1  0  0  0  0
 14 15  2  0  0  0  0
 14 32  1  0  0  0  0
 15 16  1  0  0  0  0
 15 33  1  0  0  0  0
 16 17  2  0  0  0  0
 16 34  1  0  0  0  0
 17 35  1  0  0  0  0
M  END
$$$$