440131 440130
 OpenBabel01211413163D

 19 19  0  0  0  0  0  0  0  0999 V2000
    3.9352    1.2233   -1.2311 Cl  0  0  0  0  0  0  0  0  0  0  0  0
    3.0905    2.7021   -0.7149 C   0  0  0  0  0  0  0  0  0  0  0  0
    3.9768    3.5609    0.1721 C   0  0  0  0  0  0  0  0  0  0  0  0
    3.9340    4.7852    0.0860 O   0  0  0  0  0  0  0  0  0  0  0  0
    4.7100    2.8386    1.1006 N   0  0  0  0  0  0  0  0  0  0  0  0
    5.5774    3.3341    2.0951 C   0  0  0  0  0  0  0  0  0  0  0  0
    5.8133    4.6908    2.3203 C   0  0  0  0  0  0  0  0  0  0  0  0
    6.6957    5.1024    3.3263 C   0  0  0  0  0  0  0  0  0  0  0  0
    7.3494    4.1593    4.1208 C   0  0  0  0  0  0  0  0  0  0  0  0
    7.1158    2.7997    3.9062 C   0  0  0  0  0  0  0  0  0  0  0  0
    6.2336    2.3910    2.8965 C   0  0  0  0  0  0  0  0  0  0  0  0
    7.8798    1.5678    4.8483 Cl  0  0  0  0  0  0  0  0  0  0  0  0
    8.4254    4.7373    5.3413 Cl  0  0  0  0  0  0  0  0  0  0  0  0
    2.1908    2.4172   -0.1628 H   0  0  0  0  0  0  0  0  0  0  0  0
    2.8140    3.2614   -1.6125 H   0  0  0  0  0  0  0  0  0  0  0  0
    4.6559    1.8284    1.0080 H   0  0  0  0  0  0  0  0  0  0  0  0
    5.3303    5.4634    1.7292 H   0  0  0  0  0  0  0  0  0  0  0  0
    6.8664    6.1652    3.4798 H   0  0  0  0  0  0  0  0  0  0  0  0
    6.0656    1.3280    2.7440 H   0  0  0  0  0  0  0  0  0  0  0  0
  1  2  1  0  0  0  0
  2  3  1  0  0  0  0
  2 14  1  0  0  0  0
  2 15  1  0  0  0  0
  3  5  1  0  0  0  0
  3  4  2  0  0  0  0
  5  6  1  0  0  0  0
  5 16  1  0  0  0  0
  6  7  2  0  0  0  0
  6 11  1  0  0  0  0
  7  8  1  0  0  0  0
  7 17  1  0  0  0  0
  8  9  2  0  0  0  0
  8 18  1  0  0  0  0
  9 10  1  0  0  0  0
  9 13  1  0  0  0  0
 10 11  2  0  0  0  0
 10 12  1  0  0  0  0
 11 19  1  0  0  0  0
M  END
$$$$