2177291 2177290
 OpenBabel01211413473D

 36 36  0  0  0  0  0  0  0  0999 V2000
    4.4458   -1.3161    0.8867 C   0  0  0  0  0  0  0  0  0  0  0  0
    3.4002   -0.4433    0.2035 C   0  0  0  0  0  0  0  0  0  0  0  0
    3.6235    1.0474    0.3154 C   0  0  0  0  0  0  0  0  0  0  0  0
    3.2199    1.8780   -0.7406 C   0  0  0  0  0  0  0  0  0  0  0  0
    3.3697    3.2653   -0.6620 C   0  0  0  0  0  0  0  0  0  0  0  0
    3.9122    3.8565    0.4845 C   0  0  0  0  0  0  0  0  0  0  0  0
    4.3160    3.0318    1.5411 C   0  0  0  0  0  0  0  0  0  0  0  0
    4.1611    1.6443    1.4624 C   0  0  0  0  0  0  0  0  0  0  0  0
    4.0882    5.3477    0.5734 C   0  0  0  0  0  0  0  0  0  0  0  0
    5.3798    5.7421    0.0766 N   0  0  0  0  0  0  0  0  0  0  0  0
    6.2984    6.4219    0.8356 C   0  0  0  0  0  0  0  0  0  0  0  0
    6.1638    6.7741    1.9994 O   0  0  0  0  0  0  0  0  0  0  0  0
    7.6021    6.7559    0.0750 C   0  0  0  0  0  0  0  0  0  0  0  0
    7.7862    6.3176   -1.0531 O   0  0  0  0  0  0  0  0  0  0  0  0
    8.4578    7.5618    0.7858 N   0  0  0  0  0  0  0  0  0  0  0  0
    9.7630    7.9019    0.2959 C   0  0  0  0  0  0  0  0  0  0  0  0
   10.2292    9.1164    1.0313 C   0  0  0  0  0  0  0  0  0  0  0  0
   10.4323   10.3122    0.4622 C   0  0  0  0  0  0  0  0  0  0  0  0
    4.2620   -2.3706    0.6557 H   0  0  0  0  0  0  0  0  0  0  0  0
    4.4109   -1.2102    1.9755 H   0  0  0  0  0  0  0  0  0  0  0  0
    5.4566   -1.0645    0.5490 H   0  0  0  0  0  0  0  0  0  0  0  0
    2.4095   -0.6755    0.6122 H   0  0  0  0  0  0  0  0  0  0  0  0
    3.3824   -0.7222   -0.8578 H   0  0  0  0  0  0  0  0  0  0  0  0
    2.7821    1.4472   -1.6389 H   0  0  0  0  0  0  0  0  0  0  0  0
    3.0530    3.8800   -1.5016 H   0  0  0  0  0  0  0  0  0  0  0  0
    4.7500    3.4681    2.4391 H   0  0  0  0  0  0  0  0  0  0  0  0
    4.4666    1.0428    2.3145 H   0  0  0  0  0  0  0  0  0  0  0  0
    3.9440    5.6893    1.6046 H   0  0  0  0  0  0  0  0  0  0  0  0
    3.3339    5.8550   -0.0386 H   0  0  0  0  0  0  0  0  0  0  0  0
    5.6595    5.4863   -0.8661 H   0  0  0  0  0  0  0  0  0  0  0  0
    8.1947    7.7589    1.7477 H   0  0  0  0  0  0  0  0  0  0  0  0
    9.7205    8.0602   -0.7872 H   0  0  0  0  0  0  0  0  0  0  0  0
   10.4341    7.0595    0.4902 H   0  0  0  0  0  0  0  0  0  0  0  0
   10.4291    9.0027    2.0940 H   0  0  0  0  0  0  0  0  0  0  0  0
   10.2548   10.4782   -0.5968 H   0  0  0  0  0  0  0  0  0  0  0  0
   10.7787   11.1575    1.0498 H   0  0  0  0  0  0  0  0  0  0  0  0
  1  2  1  0  0  0  0
  1 19  1  0  0  0  0
  1 20  1  0  0  0  0
  1 21  1  0  0  0  0
  2  3  1  0  0  0  0
  2 22  1  0  0  0  0
  2 23  1  0  0  0  0
  3  4  2  0  0  0  0
  3  8  1  0  0  0  0
  4  5  1  0  0  0  0
  4 24  1  0  0  0  0
  5  6  2  0  0  0  0
  5 25  1  0  0  0  0
  6  7  1  0  0  0  0
  6  9  1  0  0  0  0
  7  8  2  0  0  0  0
  7 26  1  0  0  0  0
  8 27  1  0  0  0  0
  9 10  1  0  0  0  0
  9 28  1  0  0  0  0
  9 29  1  0  0  0  0
 10 11  1  0  0  0  0
 10 30  1  0  0  0  0
 11 13  1  0  0  0  0
 11 12  2  0  0  0  0
 13 15  1  0  0  0  0
 13 14  2  0  0  0  0
 15 16  1  0  0  0  0
 15 31  1  0  0  0  0
 16 17  1  0  0  0  0
 16 32  1  0  0  0  0
 16 33  1  0  0  0  0
 17 18  2  0  0  0  0
 17 34  1  0  0  0  0
 18 35  1  0  0  0  0
 18 36  1  0  0  0  0
M  END
$$$$