6172355 6172354
 OpenBabel01211413563D

 42 44  0  0  0  0  0  0  0  0999 V2000
    7.6914   -2.0754    1.6146 C   0  0  0  0  0  0  0  0  0  0  0  0
    6.9894   -1.8380    0.2864 C   0  0  0  0  0  0  0  0  0  0  0  0
    5.4678   -1.8831    0.4458 C   0  0  0  0  0  0  0  0  0  0  0  0
    4.7187   -1.6078   -0.8636 C   0  0  0  0  0  0  0  0  0  0  0  0
    4.9421   -2.6446   -1.9394 C   0  0  0  0  0  0  0  0  0  0  0  0
    5.5229   -2.2812   -3.1622 C   0  0  0  0  0  0  0  0  0  0  0  0
    5.7261   -3.2331   -4.1656 C   0  0  0  0  0  0  0  0  0  0  0  0
    5.3465   -4.5630   -3.9563 C   0  0  0  0  0  0  0  0  0  0  0  0
    4.7618   -4.9322   -2.7406 C   0  0  0  0  0  0  0  0  0  0  0  0
    4.5582   -3.9777   -1.7409 C   0  0  0  0  0  0  0  0  0  0  0  0
    5.5317   -5.5886   -4.9945 C   0  0  0  0  0  0  0  0  0  0  0  0
    5.1761   -6.8319   -4.9293 N   0  0  0  0  0  0  0  0  0  0  0  0
    5.5574   -7.3173   -6.1530 C   0  0  0  0  0  0  0  0  0  0  0  0
    5.3891   -8.5482   -6.6500 C   0  0  0  0  0  0  0  0  0  0  0  0
    4.7436   -9.5733   -5.9065 C   0  0  0  0  0  0  0  0  0  0  0  0
    3.0441   -9.7827   -6.0677 S   0  0  0  0  0  0  0  0  0  0  0  0
    3.0299  -11.0973   -4.9836 C   0  0  0  0  0  0  0  0  0  0  0  0
    4.2891  -11.3913   -4.5165 C   0  0  0  0  0  0  0  0  0  0  0  0
    5.2950  -10.5171   -5.0477 C   0  0  0  0  0  0  0  0  0  0  0  0
    6.7471  -10.6246   -4.7108 C   0  0  0  0  0  0  0  0  0  0  0  0
    6.2049   -6.2480   -6.9537 C   0  0  0  0  0  0  0  0  0  0  0  0
    6.6840   -6.2996   -8.0692 O   0  0  0  0  0  0  0  0  0  0  0  0
    6.1380   -5.1666   -6.1303 O   0  0  0  0  0  0  0  0  0  0  0  0
    8.7771   -2.0432    1.4805 H   0  0  0  0  0  0  0  0  0  0  0  0
    7.4292   -3.0555    2.0262 H   0  0  0  0  0  0  0  0  0  0  0  0
    7.4161   -1.3099    2.3470 H   0  0  0  0  0  0  0  0  0  0  0  0
    7.3215   -2.6006   -0.4266 H   0  0  0  0  0  0  0  0  0  0  0  0
    7.2932   -0.8636   -0.1132 H   0  0  0  0  0  0  0  0  0  0  0  0
    5.1641   -1.1249    1.1788 H   0  0  0  0  0  0  0  0  0  0  0  0
    5.1692   -2.8535    0.8599 H   0  0  0  0  0  0  0  0  0  0  0  0
    4.9977   -0.6132   -1.2340 H   0  0  0  0  0  0  0  0  0  0  0  0
    3.6415   -1.5609   -0.6583 H   0  0  0  0  0  0  0  0  0  0  0  0
    5.8219   -1.2505   -3.3437 H   0  0  0  0  0  0  0  0  0  0  0  0
    6.1761   -2.9173   -5.1036 H   0  0  0  0  0  0  0  0  0  0  0  0
    4.4566   -5.9621   -2.5643 H   0  0  0  0  0  0  0  0  0  0  0  0
    4.0941   -4.2840   -0.8056 H   0  0  0  0  0  0  0  0  0  0  0  0
    5.7347   -8.7911   -7.6511 H   0  0  0  0  0  0  0  0  0  0  0  0
    2.1012  -11.5958   -4.7436 H   0  0  0  0  0  0  0  0  0  0  0  0
    4.4848  -12.2002   -3.8228 H   0  0  0  0  0  0  0  0  0  0  0  0
    7.1481   -9.6549   -4.3992 H   0  0  0  0  0  0  0  0  0  0  0  0
    7.3122  -10.9745   -5.5808 H   0  0  0  0  0  0  0  0  0  0  0  0
    6.9120  -11.3327   -3.8922 H   0  0  0  0  0  0  0  0  0  0  0  0
  1  2  1  0  0  0  0
  1 24  1  0  0  0  0
  1 25  1  0  0  0  0
  1 26  1  0  0  0  0
  2  3  1  0  0  0  0
  2 27  1  0  0  0  0
  2 28  1  0  0  0  0
  3  4  1  0  0  0  0
  3 29  1  0  0  0  0
  3 30  1  0  0  0  0
  4  5  1  0  0  0  0
  4 31  1  0  0  0  0
  4 32  1  0  0  0  0
  5  6  2  0  0  0  0
  5 10  1  0  0  0  0
  6  7  1  0  0  0  0
  6 33  1  0  0  0  0
  7  8  2  0  0  0  0
  7 34  1  0  0  0  0
  8  9  1  0  0  0  0
  8 11  1  0  0  0  0
  9 10  2  0  0  0  0
  9 35  1  0  0  0  0
 10 36  1  0  0  0  0
 11 12  2  0  0  0  0
 11 23  1  0  0  0  0
 12 13  1  0  0  0  0
 13 21  1  0  0  0  0
 13 14  2  0  0  0  0
 14 15  1  0  0  0  0
 14 37  1  0  0  0  0
 15 16  1  0  0  0  0
 15 19  2  0  0  0  0
 16 17  1  0  0  0  0
 17 18  2  0  0  0  0
 17 38  1  0  0  0  0
 18 19  1  0  0  0  0
 18 39  1  0  0  0  0
 19 20  1  0  0  0  0
 20 40  1  0  0  0  0
 20 41  1  0  0  0  0
 20 42  1  0  0  0  0
 21 23  1  0  0  0  0
 21 22  2  0  0  0  0
M  END
$$$$