26245735 26245734
 OpenBabel01211414043D

 37 36  0  0  0  0  0  0  0  0999 V2000
   -1.2586    2.1982   -3.4189 C   0  0  0  0  0  0  0  0  0  0  0  0
   -1.7491    3.2564   -4.3967 C   0  0  0  0  0  0  0  0  0  0  0  0
   -0.7074    4.0775   -4.9004 O   0  0  0  0  0  0  0  0  0  0  0  0
    0.5864    3.5387   -5.7184 P   0  0  0  0  0  0  0  0  0  0  0  0
    1.2601    2.3961   -4.9957 O   0  0  0  0  0  0  0  0  0  0  0  0
    0.1511    3.4758   -7.4246 C   0  0  0  0  0  0  0  0  0  0  0  0
    0.7792    2.7419   -8.3584 C   0  0  0  0  0  0  0  0  0  0  0  0
    1.8516    1.8734   -8.2382 N   0  0  0  0  0  0  0  0  0  0  0  0
    1.6251    0.4487   -7.9352 C   0  0  0  0  0  0  0  0  0  0  0  0
    2.9001   -0.3534   -8.1952 C   0  0  0  0  0  0  0  0  0  0  0  0
    3.2530   -0.7151   -9.3146 O   0  0  0  0  0  0  0  0  0  0  0  0
    3.6603   -0.5586   -7.0949 O   0  0  0  0  0  0  0  0  0  0  0  0
   -1.0766    4.5851   -7.9971 Cl  0  0  0  0  0  0  0  0  0  0  0  0
    1.4913    4.8879   -5.6478 O   0  0  0  0  0  0  0  0  0  0  0  0
    2.4067    5.1053   -4.5869 C   0  0  0  0  0  0  0  0  0  0  0  0
    3.2513    6.3123   -4.9837 C   0  0  0  0  0  0  0  0  0  0  0  0
    1.6850    5.3774   -3.2747 C   0  0  0  0  0  0  0  0  0  0  0  0
   -2.6045    2.6550   -5.5015 C   0  0  0  0  0  0  0  0  0  0  0  0
   -2.0807    1.8605   -2.7786 H   0  0  0  0  0  0  0  0  0  0  0  0
   -0.4592    2.5851   -2.7806 H   0  0  0  0  0  0  0  0  0  0  0  0
   -0.8738    1.3179   -3.9443 H   0  0  0  0  0  0  0  0  0  0  0  0
   -2.3915    3.9389   -3.8270 H   0  0  0  0  0  0  0  0  0  0  0  0
    0.4914    2.8583   -9.4045 H   0  0  0  0  0  0  0  0  0  0  0  0
    2.4114    1.9085   -9.1009 H   0  0  0  0  0  0  0  0  0  0  0  0
    0.8409    0.0316   -8.5786 H   0  0  0  0  0  0  0  0  0  0  0  0
    1.3035    0.3115   -6.8982 H   0  0  0  0  0  0  0  0  0  0  0  0
    3.3172   -0.1017   -6.2989 H   0  0  0  0  0  0  0  0  0  0  0  0
    3.0625    4.2341   -4.4864 H   0  0  0  0  0  0  0  0  0  0  0  0
    2.6198    7.1917   -5.1575 H   0  0  0  0  0  0  0  0  0  0  0  0
    3.7783    6.1169   -5.9240 H   0  0  0  0  0  0  0  0  0  0  0  0
    3.9899    6.5584   -4.2150 H   0  0  0  0  0  0  0  0  0  0  0  0
    0.9332    6.1653   -3.3924 H   0  0  0  0  0  0  0  0  0  0  0  0
    2.3880    5.6757   -2.4900 H   0  0  0  0  0  0  0  0  0  0  0  0
    1.1588    4.4831   -2.9292 H   0  0  0  0  0  0  0  0  0  0  0  0
   -2.0165    2.0009   -6.1520 H   0  0  0  0  0  0  0  0  0  0  0  0
   -3.0321    3.4443   -6.1273 H   0  0  0  0  0  0  0  0  0  0  0  0
   -3.4320    2.0713   -5.0856 H   0  0  0  0  0  0  0  0  0  0  0  0
  1  2  1  0  0  0  0
  1 19  1  0  0  0  0
  1 20  1  0  0  0  0
  1 21  1  0  0  0  0
  2 18  1  0  0  0  0
  2  3  1  0  0  0  0
  2 22  1  0  0  0  0
  3  4  1  0  0  0  0
  4 14  1  0  0  0  0
  4  6  1  0  0  0  0
  4  5  2  0  0  0  0
  6 13  1  0  0  0  0
  6  7  2  0  0  0  0
  7  8  1  0  0  0  0
  7 23  1  0  0  0  0
  8  9  1  0  0  0  0
  8 24  1  0  0  0  0
  9 10  1  0  0  0  0
  9 25  1  0  0  0  0
  9 26  1  0  0  0  0
 10 12  1  0  0  0  0
 10 11  2  0  0  0  0
 12 27  1  0  0  0  0
 14 15  1  0  0  0  0
 15 17  1  0  0  0  0
 15 16  1  0  0  0  0
 15 28  1  0  0  0  0
 16 29  1  0  0  0  0
 16 30  1  0  0  0  0
 16 31  1  0  0  0  0
 17 32  1  0  0  0  0
 17 33  1  0  0  0  0
 17 34  1  0  0  0  0
 18 35  1  0  0  0  0
 18 36  1  0  0  0  0
 18 37  1  0  0  0  0
M  END
$$$$