1018702 1018701
 OpenBabel01211413363D

 29 29  0  0  0  0  0  0  0  0999 V2000
    3.5508    3.0965   -0.2957 C   0  0  0  0  0  0  0  0  0  0  0  0
    4.0755    1.7393    0.1488 C   0  0  0  0  0  0  0  0  0  0  0  0
    4.4156    1.7409    1.6366 C   0  0  0  0  0  0  0  0  0  0  0  0
    5.1225    0.1346    2.1084 S   0  0  0  0  0  0  0  0  0  0  0  0
    5.5416    0.5354    3.7654 C   0  0  0  0  0  0  0  0  0  0  0  0
    4.7417    1.0523    4.5259 O   0  0  0  0  0  0  0  0  0  0  0  0
    6.8521    0.2074    3.9611 N   0  0  0  0  0  0  0  0  0  0  0  0
    7.6285    0.3882    5.1154 C   0  0  0  0  0  0  0  0  0  0  0  0
    7.1133    0.8277    6.3352 C   0  0  0  0  0  0  0  0  0  0  0  0
    7.9559    0.9908    7.4405 C   0  0  0  0  0  0  0  0  0  0  0  0
    9.3239    0.7143    7.3433 C   0  0  0  0  0  0  0  0  0  0  0  0
    9.8406    0.2846    6.1181 C   0  0  0  0  0  0  0  0  0  0  0  0
    8.9973    0.1124    5.0172 C   0  0  0  0  0  0  0  0  0  0  0  0
   10.2271    0.9345    8.5201 C   0  0  0  0  0  0  0  0  0  0  0  0
    3.3025    3.0756   -1.3615 H   0  0  0  0  0  0  0  0  0  0  0  0
    4.3022    3.8771   -0.1382 H   0  0  0  0  0  0  0  0  0  0  0  0
    2.6481    3.3702    0.2594 H   0  0  0  0  0  0  0  0  0  0  0  0
    4.9635    1.4967   -0.4479 H   0  0  0  0  0  0  0  0  0  0  0  0
    3.3162    0.9779   -0.0668 H   0  0  0  0  0  0  0  0  0  0  0  0
    3.5174    1.9342    2.2323 H   0  0  0  0  0  0  0  0  0  0  0  0
    5.1480    2.5260    1.8536 H   0  0  0  0  0  0  0  0  0  0  0  0
    7.3100   -0.1655    3.1391 H   0  0  0  0  0  0  0  0  0  0  0  0
    6.0570    1.0457    6.4623 H   0  0  0  0  0  0  0  0  0  0  0  0
    7.5313    1.3370    8.3807 H   0  0  0  0  0  0  0  0  0  0  0  0
   10.9037    0.0820    6.0101 H   0  0  0  0  0  0  0  0  0  0  0  0
    9.4307   -0.2242    4.0792 H   0  0  0  0  0  0  0  0  0  0  0  0
   11.1434    0.3416    8.4304 H   0  0  0  0  0  0  0  0  0  0  0  0
    9.7329    0.6315    9.4490 H   0  0  0  0  0  0  0  0  0  0  0  0
   10.5002    1.9920    8.5889 H   0  0  0  0  0  0  0  0  0  0  0  0
  1  2  1  0  0  0  0
  1 15  1  0  0  0  0
  1 16  1  0  0  0  0
  1 17  1  0  0  0  0
  2  3  1  0  0  0  0
  2 18  1  0  0  0  0
  2 19  1  0  0  0  0
  3  4  1  0  0  0  0
  3 20  1  0  0  0  0
  3 21  1  0  0  0  0
  4  5  1  0  0  0  0
  5  7  1  0  0  0  0
  5  6  2  0  0  0  0
  7  8  1  0  0  0  0
  7 22  1  0  0  0  0
  8  9  2  0  0  0  0
  8 13  1  0  0  0  0
  9 10  1  0  0  0  0
  9 23  1  0  0  0  0
 10 11  2  0  0  0  0
 10 24  1  0  0  0  0
 11 12  1  0  0  0  0
 11 14  1  0  0  0  0
 12 13  2  0  0  0  0
 12 25  1  0  0  0  0
 13 26  1  0  0  0  0
 14 27  1  0  0  0  0
 14 28  1  0  0  0  0
 14 29  1  0  0  0  0
M  END
$$$$