503682 503681
 OpenBabel01211413203D

 22 23  0  0  0  0  0  0  0  0999 V2000
    4.0758   -1.5129    0.2859 C   0  0  0  0  0  0  0  0  0  0  0  0
    2.9262   -0.6058   -0.0643 C   0  0  0  0  0  0  0  0  0  0  0  0
    1.7555   -0.9570    0.0591 O   0  0  0  0  0  0  0  0  0  0  0  0
    3.2282    0.7670   -0.5306 C   0  0  0  0  0  0  0  0  0  0  0  0
    2.5806    1.8093    0.1525 C   0  0  0  0  0  0  0  0  0  0  0  0
    2.8991    3.0988   -0.2036 C   0  0  0  0  0  0  0  0  0  0  0  0
    2.3952    4.2288    0.3589 O   0  0  0  0  0  0  0  0  0  0  0  0
    3.0980    5.2429   -0.3889 C   0  0  0  0  0  0  0  0  0  0  0  0
    4.0129    4.7014   -1.3653 O   0  0  0  0  0  0  0  0  0  0  0  0
    3.8192    3.3670   -1.1867 C   0  0  0  0  0  0  0  0  0  0  0  0
    4.4544    2.3605   -1.8868 C   0  0  0  0  0  0  0  0  0  0  0  0
    4.1161    1.0264   -1.6077 C   0  0  0  0  0  0  0  0  0  0  0  0
    4.8115    0.0070   -2.2859 N   0  0  0  0  0  0  0  0  0  0  0  0
    5.0106   -0.9548    0.3882 H   0  0  0  0  0  0  0  0  0  0  0  0
    4.1867   -2.2803   -0.4839 H   0  0  0  0  0  0  0  0  0  0  0  0
    3.8691   -1.9870    1.2500 H   0  0  0  0  0  0  0  0  0  0  0  0
    1.8704    1.6096    0.9483 H   0  0  0  0  0  0  0  0  0  0  0  0
    3.6632    5.8674    0.3124 H   0  0  0  0  0  0  0  0  0  0  0  0
    2.3632    5.8704   -0.9064 H   0  0  0  0  0  0  0  0  0  0  0  0
    5.1850    2.6131   -2.6475 H   0  0  0  0  0  0  0  0  0  0  0  0
    4.2730   -0.8494   -2.3981 H   0  0  0  0  0  0  0  0  0  0  0  0
    5.1979    0.3056   -3.1787 H   0  0  0  0  0  0  0  0  0  0  0  0
  1  2  1  0  0  0  0
  1 14  1  0  0  0  0
  1 15  1  0  0  0  0
  1 16  1  0  0  0  0
  2  4  1  0  0  0  0
  2  3  2  0  0  0  0
  4  5  2  0  0  0  0
  4 12  1  0  0  0  0
  5  6  1  0  0  0  0
  5 17  1  0  0  0  0
  6 10  2  0  0  0  0
  6  7  1  0  0  0  0
  7  8  1  0  0  0  0
  8  9  1  0  0  0  0
  8 18  1  0  0  0  0
  8 19  1  0  0  0  0
  9 10  1  0  0  0  0
 10 11  1  0  0  0  0
 11 12  2  0  0  0  0
 11 20  1  0  0  0  0
 12 13  1  0  0  0  0
 13 21  1  0  0  0  0
 13 22  1  0  0  0  0
M  END
$$$$