14317526 14317525
 OpenBabel01211414003D

 45 45  0  0  1  0  0  0  0  0999 V2000
    2.2325   -2.4534   -1.3986 C   0  0  0  0  0  0  0  0  0  0  0  0
    2.3562   -1.9180    0.0226 C   0  0  0  0  0  0  0  0  0  0  0  0
    3.5586   -2.4555    0.8293 C   0  0  3  0  0  0  0  0  0  0  0  0
    3.3750   -3.9316    1.1950 C   0  0  0  0  0  0  0  0  0  0  0  0
    3.7982   -4.9310    0.2950 C   0  0  0  0  0  0  0  0  0  0  0  0
    3.6415   -6.2869    0.5828 C   0  0  0  0  0  0  0  0  0  0  0  0
    3.0520   -6.6871    1.7808 C   0  0  0  0  0  0  0  0  0  0  0  0
    2.6083   -5.7077    2.6775 C   0  0  0  0  0  0  0  0  0  0  0  0
    2.7593   -4.3345    2.4013 C   0  0  0  0  0  0  0  0  0  0  0  0
    2.2557   -3.3421    3.4155 C   0  0  0  0  0  0  0  0  0  0  0  0
    2.8685   -8.1459    2.0738 C   0  0  0  0  0  0  0  0  0  0  0  0
    4.8529   -2.2496    0.1789 N   0  0  0  0  0  0  0  0  0  0  0  0
    5.3259   -0.9967   -0.1178 C   0  0  0  0  0  0  0  0  0  0  0  0
    4.7070    0.0426    0.0492 O   0  0  0  0  0  0  0  0  0  0  0  0
    6.5915   -1.0823   -0.6505 N   0  0  0  0  0  0  0  0  0  0  0  0
    7.2803    0.0904   -1.1926 C   0  0  3  0  0  0  0  0  0  0  0  0
    7.6248    1.1039   -0.0832 C   0  0  0  0  0  0  0  0  0  0  0  0
    8.3614    2.3393   -0.5820 C   0  0  0  0  0  0  0  0  0  0  0  0
    8.5322   -0.3781   -1.9390 C   0  0  0  0  0  0  0  0  0  0  0  0
    1.4218   -1.9336   -1.9205 H   0  0  0  0  0  0  0  0  0  0  0  0
    1.9922   -3.5198   -1.4056 H   0  0  0  0  0  0  0  0  0  0  0  0
    3.1506   -2.2966   -1.9715 H   0  0  0  0  0  0  0  0  0  0  0  0
    1.4236   -2.1353    0.5582 H   0  0  0  0  0  0  0  0  0  0  0  0
    2.4151   -0.8252   -0.0368 H   0  0  0  0  0  0  0  0  0  0  0  0
    3.6241   -1.8720    1.7550 H   0  0  0  0  0  0  0  0  0  0  0  0
    4.2472   -4.6555   -0.6579 H   0  0  0  0  0  0  0  0  0  0  0  0
    3.9770   -7.0276   -0.1389 H   0  0  0  0  0  0  0  0  0  0  0  0
    2.1329   -6.0179    3.6064 H   0  0  0  0  0  0  0  0  0  0  0  0
    1.5199   -2.6704    2.9627 H   0  0  0  0  0  0  0  0  0  0  0  0
    3.0870   -2.7591    3.8234 H   0  0  0  0  0  0  0  0  0  0  0  0
    1.7626   -3.8412    4.2566 H   0  0  0  0  0  0  0  0  0  0  0  0
    2.5337   -8.3105    3.1033 H   0  0  0  0  0  0  0  0  0  0  0  0
    3.8155   -8.6806    1.9451 H   0  0  0  0  0  0  0  0  0  0  0  0
    2.1203   -8.5732    1.3982 H   0  0  0  0  0  0  0  0  0  0  0  0
    5.5831   -2.8731    0.4893 H   0  0  0  0  0  0  0  0  0  0  0  0
    6.7332   -1.9491   -1.1486 H   0  0  0  0  0  0  0  0  0  0  0  0
    6.5964    0.5603   -1.9109 H   0  0  0  0  0  0  0  0  0  0  0  0
    8.2236    0.6163    0.6965 H   0  0  0  0  0  0  0  0  0  0  0  0
    6.7058    1.4433    0.4086 H   0  0  0  0  0  0  0  0  0  0  0  0
    9.3787    2.0965   -0.9023 H   0  0  0  0  0  0  0  0  0  0  0  0
    8.4397    3.0785    0.2217 H   0  0  0  0  0  0  0  0  0  0  0  0
    7.8320    2.8038   -1.4195 H   0  0  0  0  0  0  0  0  0  0  0  0
    8.2783   -1.1380   -2.6864 H   0  0  0  0  0  0  0  0  0  0  0  0
    9.2577   -0.8251   -1.2501 H   0  0  0  0  0  0  0  0  0  0  0  0
    9.0201    0.4462   -2.4681 H   0  0  0  0  0  0  0  0  0  0  0  0
  1  2  1  0  0  0  0
  1 20  1  0  0  0  0
  1 21  1  0  0  0  0
  1 22  1  0  0  0  0
  2  3  1  0  0  0  0
  2 23  1  0  0  0  0
  2 24  1  0  0  0  0
  3 12  1  0  0  0  0
  3  4  1  0  0  0  0
  3 25  1  0  0  0  0
  4  5  2  0  0  0  0
  4  9  1  0  0  0  0
  5  6  1  0  0  0  0
  5 26  1  0  0  0  0
  6  7  2  0  0  0  0
  6 27  1  0  0  0  0
  7  8  1  0  0  0  0
  7 11  1  0  0  0  0
  8  9  2  0  0  0  0
  8 28  1  0  0  0  0
  9 10  1  0  0  0  0
 10 29  1  0  0  0  0
 10 30  1  0  0  0  0
 10 31  1  0  0  0  0
 11 32  1  0  0  0  0
 11 33  1  0  0  0  0
 11 34  1  0  0  0  0
 12 13  1  0  0  0  0
 12 35  1  0  0  0  0
 13 15  1  0  0  0  0
 13 14  2  0  0  0  0
 15 16  1  0  0  0  0
 15 36  1  0  0  0  0
 16 19  1  0  0  0  0
 16 17  1  0  0  0  0
 16 37  1  0  0  0  0
 17 18  1  0  0  0  0
 17 38  1  0  0  0  0
 17 39  1  0  0  0  0
 18 40  1  0  0  0  0
 18 41  1  0  0  0  0
 18 42  1  0  0  0  0
 19 43  1  0  0  0  0
 19 44  1  0  0  0  0
 19 45  1  0  0  0  0
M  END
$$$$