4420955 4420954
 OpenBabel01211413533D

 37 39  0  0  0  0  0  0  0  0999 V2000
    2.0762    1.8863   -0.3672 C   0  0  0  0  0  0  0  0  0  0  0  0
    2.2211    0.3862   -0.1462 C   0  0  0  0  0  0  0  0  0  0  0  0
    2.7593   -0.3129   -1.3795 C   0  0  0  0  0  0  0  0  0  0  0  0
    1.9939   -1.0233   -2.2615 C   0  0  0  0  0  0  0  0  0  0  0  0
    0.6082   -1.1518   -2.0054 N   0  0  0  0  0  0  0  0  0  0  0  0
    0.2030   -2.1904   -1.0386 C   0  0  0  0  0  0  0  0  0  0  0  0
   -0.2630   -1.2118   -3.1458 C   0  0  0  0  0  0  0  0  0  0  0  0
   -1.6450   -0.9982   -2.9984 C   0  0  0  0  0  0  0  0  0  0  0  0
   -2.4958   -1.0482   -4.0996 C   0  0  0  0  0  0  0  0  0  0  0  0
   -1.9761   -1.3048   -5.3656 C   0  0  0  0  0  0  0  0  0  0  0  0
   -0.5994   -1.5047   -5.5465 C   0  0  0  0  0  0  0  0  0  0  0  0
    0.2742   -1.4486   -4.4294 C   0  0  0  0  0  0  0  0  0  0  0  0
    1.6656   -1.6544   -4.5946 C   0  0  0  0  0  0  0  0  0  0  0  0
    2.5131   -1.5692   -3.4547 N   0  0  0  0  0  0  0  0  0  0  0  0
    3.9038   -1.9869   -3.6089 C   0  0  0  0  0  0  0  0  0  0  0  0
    2.1493   -1.8957   -5.8933 C   0  0  0  0  0  0  0  0  0  0  0  0
    1.2901   -1.9510   -6.9921 C   0  0  0  0  0  0  0  0  0  0  0  0
   -0.0762   -1.7580   -6.8195 C   0  0  0  0  0  0  0  0  0  0  0  0
    4.1198   -0.1093   -1.5957 O   0  0  0  0  0  0  0  0  0  0  0  0
    1.6926    2.3650    0.5397 H   0  0  0  0  0  0  0  0  0  0  0  0
    1.3768    2.0989   -1.1830 H   0  0  0  0  0  0  0  0  0  0  0  0
    3.0366    2.3528   -0.6112 H   0  0  0  0  0  0  0  0  0  0  0  0
    1.2521   -0.0081    0.1704 H   0  0  0  0  0  0  0  0  0  0  0  0
    2.9029    0.2030    0.6931 H   0  0  0  0  0  0  0  0  0  0  0  0
    0.9309   -2.2809   -0.2231 H   0  0  0  0  0  0  0  0  0  0  0  0
    0.1318   -3.1773   -1.5139 H   0  0  0  0  0  0  0  0  0  0  0  0
   -0.7567   -1.9480   -0.5688 H   0  0  0  0  0  0  0  0  0  0  0  0
   -2.0610   -0.7651   -2.0227 H   0  0  0  0  0  0  0  0  0  0  0  0
   -3.5613   -0.8781   -3.9720 H   0  0  0  0  0  0  0  0  0  0  0  0
   -2.6545   -1.3400   -6.2151 H   0  0  0  0  0  0  0  0  0  0  0  0
    4.3523   -2.2640   -2.6483 H   0  0  0  0  0  0  0  0  0  0  0  0
    4.5038   -1.1932   -4.0665 H   0  0  0  0  0  0  0  0  0  0  0  0
    3.9895   -2.8958   -4.2162 H   0  0  0  0  0  0  0  0  0  0  0  0
    3.2099   -2.0222   -6.0839 H   0  0  0  0  0  0  0  0  0  0  0  0
    1.6919   -2.1355   -7.9847 H   0  0  0  0  0  0  0  0  0  0  0  0
   -0.7290   -1.8018   -7.6881 H   0  0  0  0  0  0  0  0  0  0  0  0
    4.4411    0.5369   -0.9455 H   0  0  0  0  0  0  0  0  0  0  0  0
  1  2  1  0  0  0  0
  1 20  1  0  0  0  0
  1 21  1  0  0  0  0
  1 22  1  0  0  0  0
  2  3  1  0  0  0  0
  2 23  1  0  0  0  0
  2 24  1  0  0  0  0
  3 19  1  0  0  0  0
  3  4  2  3  0  0  0
  4 14  1  0  0  0  0
  4  5  1  0  0  0  0
  5  7  1  0  0  0  0
  5  6  1  0  0  0  0
  6 25  1  0  0  0  0
  6 26  1  0  0  0  0
  6 27  1  0  0  0  0
  7  8  2  0  0  0  0
  7 12  1  0  0  0  0
  8  9  1  0  0  0  0
  8 28  1  0  0  0  0
  9 10  2  0  0  0  0
  9 29  1  0  0  0  0
 10 11  1  0  0  0  0
 10 30  1  0  0  0  0
 11 18  1  0  0  0  0
 11 12  2  0  0  0  0
 12 13  1  0  0  0  0
 13 14  1  0  0  0  0
 13 16  2  0  0  0  0
 14 15  1  0  0  0  0
 15 31  1  0  0  0  0
 15 32  1  0  0  0  0
 15 33  1  0  0  0  0
 16 17  1  0  0  0  0
 16 34  1  0  0  0  0
 17 18  2  0  0  0  0
 17 35  1  0  0  0  0
 18 36  1  0  0  0  0
 19 37  1  0  0  0  0
M  END
$$$$