638914 638913
 OpenBabel01211413303D

 46 48  0  0  1  0  0  0  0  0999 V2000
    2.1929   -1.4436    3.2492 C   0  0  0  0  0  0  0  0  0  0  0  0
    3.4213   -0.7158    3.1938 O   0  0  0  0  0  0  0  0  0  0  0  0
    4.3782   -1.1390    2.3226 C   0  0  0  0  0  0  0  0  0  0  0  0
    4.2812   -2.1372    1.6164 O   0  0  0  0  0  0  0  0  0  0  0  0
    5.5574   -0.2633    2.3099 C   0  0  0  0  0  0  0  0  0  0  0  0
    6.7246   -0.5935    1.6239 C   0  0  0  0  0  0  0  0  0  0  0  0
    7.8952    0.6384    1.7252 S   0  0  0  0  0  0  0  0  0  0  0  0
    6.9612    1.5550    2.7843 C   0  0  0  0  0  0  0  0  0  0  0  0
    5.7140    1.0077    3.0057 C   0  0  0  0  0  0  0  0  0  0  0  0
    4.7284    1.6880    3.9207 C   0  0  0  0  0  0  0  0  0  0  0  0
    5.1450    3.1243    4.2788 C   0  0  0  0  0  0  0  0  0  0  0  0
    6.6426    3.2295    4.5859 C   0  0  0  0  0  0  0  0  0  0  0  0
    7.4804    2.8306    3.3670 C   0  0  0  0  0  0  0  0  0  0  0  0
    6.9879   -1.7580    0.9005 N   0  0  0  0  0  0  0  0  0  0  0  0
    8.2229   -2.1285    0.4037 C   0  0  0  0  0  0  0  0  0  0  0  0
    9.2645   -1.5075    0.5239 O   0  0  0  0  0  0  0  0  0  0  0  0
    8.2502   -3.4478   -0.3088 C   0  0  3  0  0  0  0  0  0  0  0  0
    9.4228   -3.9284   -1.1552 C   0  0  3  0  0  0  0  0  0  0  0  0
    9.1344   -4.5930    0.1827 C   0  0  0  0  0  0  0  0  0  0  0  0
   10.0275   -4.3727    1.3854 C   0  0  0  0  0  0  0  0  0  0  0  0
    8.5669   -5.9910    0.1310 C   0  0  0  0  0  0  0  0  0  0  0  0
   10.6292   -3.1077   -1.3717 C   0  0  0  0  0  0  0  0  0  0  0  0
   11.9037   -3.5104   -1.4856 C   0  0  0  0  0  0  0  0  0  0  0  0
   12.3589   -5.1720   -1.3999 Cl  0  0  0  0  0  0  0  0  0  0  0  0
   13.1633   -2.3519   -1.7403 Cl  0  0  0  0  0  0  0  0  0  0  0  0
    1.9195   -1.5647    4.3017 H   0  0  0  0  0  0  0  0  0  0  0  0
    2.2467   -2.4320    2.7865 H   0  0  0  0  0  0  0  0  0  0  0  0
    1.4182   -0.8454    2.7608 H   0  0  0  0  0  0  0  0  0  0  0  0
    3.7362    1.7250    3.4585 H   0  0  0  0  0  0  0  0  0  0  0  0
    4.6514    1.0990    4.8430 H   0  0  0  0  0  0  0  0  0  0  0  0
    4.9052    3.7920    3.4413 H   0  0  0  0  0  0  0  0  0  0  0  0
    4.5608    3.4691    5.1391 H   0  0  0  0  0  0  0  0  0  0  0  0
    6.8856    2.5744    5.4327 H   0  0  0  0  0  0  0  0  0  0  0  0
    6.8969    4.2519    4.8856 H   0  0  0  0  0  0  0  0  0  0  0  0
    8.5301    2.7282    3.6651 H   0  0  0  0  0  0  0  0  0  0  0  0
    7.4262    3.6197    2.6072 H   0  0  0  0  0  0  0  0  0  0  0  0
    6.2180   -2.4152    0.8191 H   0  0  0  0  0  0  0  0  0  0  0  0
    7.2746   -3.7219   -0.6997 H   0  0  0  0  0  0  0  0  0  0  0  0
    9.1551   -4.4856   -2.0498 H   0  0  0  0  0  0  0  0  0  0  0  0
    9.4213   -4.3485    2.2973 H   0  0  0  0  0  0  0  0  0  0  0  0
   10.6049   -3.4458    1.3441 H   0  0  0  0  0  0  0  0  0  0  0  0
   10.7459   -5.1942    1.4826 H   0  0  0  0  0  0  0  0  0  0  0  0
    7.9152   -6.1393   -0.7368 H   0  0  0  0  0  0  0  0  0  0  0  0
    7.9813   -6.1985    1.0323 H   0  0  0  0  0  0  0  0  0  0  0  0
    9.3767   -6.7257    0.0685 H   0  0  0  0  0  0  0  0  0  0  0  0
   10.4497   -2.0380   -1.4710 H   0  0  0  0  0  0  0  0  0  0  0  0
  1  2  1  0  0  0  0
  1 26  1  0  0  0  0
  1 27  1  0  0  0  0
  1 28  1  0  0  0  0
  2  3  1  0  0  0  0
  3  5  1  0  0  0  0
  3  4  2  0  0  0  0
  5  6  2  0  0  0  0
  5  9  1  0  0  0  0
  6  7  1  0  0  0  0
  6 14  1  0  0  0  0
  7  8  1  0  0  0  0
  8 13  1  0  0  0  0
  8  9  2  0  0  0  0
  9 10  1  0  0  0  0
 10 11  1  0  0  0  0
 10 29  1  0  0  0  0
 10 30  1  0  0  0  0
 11 12  1  0  0  0  0
 11 31  1  0  0  0  0
 11 32  1  0  0  0  0
 12 13  1  0  0  0  0
 12 33  1  0  0  0  0
 12 34  1  0  0  0  0
 13 35  1  0  0  0  0
 13 36  1  0  0  0  0
 14 15  1  0  0  0  0
 14 37  1  0  0  0  0
 15 17  1  0  0  0  0
 15 16  2  0  0  0  0
 17 19  1  0  0  0  0
 17 18  1  0  0  0  0
 17 38  1  0  0  0  0
 18 19  1  0  0  0  0
 18 22  1  0  0  0  0
 18 39  1  0  0  0  0
 19 21  1  0  0  0  0
 19 20  1  0  0  0  0
 20 40  1  0  0  0  0
 20 41  1  0  0  0  0
 20 42  1  0  0  0  0
 21 43  1  0  0  0  0
 21 44  1  0  0  0  0
 21 45  1  0  0  0  0
 22 23  2  0  0  0  0
 22 46  1  0  0  0  0
 23 25  1  0  0  0  0
 23 24  1  0  0  0  0
M  END
$$$$