478416 478415
 OpenBabel01211413173D

 16 16  0  0  0  0  0  0  0  0999 V2000
    2.4081   -1.1277    0.3829 O   0  0  0  0  0  0  0  0  0  0  0  0
    2.0608    0.0322    0.2038 C   0  0  0  0  0  0  0  0  0  0  0  0
    2.8529    1.1667    0.7177 C   0  0  0  0  0  0  0  0  0  0  0  0
    2.4102    2.4736    0.4855 C   0  0  0  0  0  0  0  0  0  0  0  0
    3.1544    3.5516    0.9684 C   0  0  0  0  0  0  0  0  0  0  0  0
    4.3343    3.3226    1.6788 C   0  0  0  0  0  0  0  0  0  0  0  0
    4.7707    2.0128    1.9067 C   0  0  0  0  0  0  0  0  0  0  0  0
    4.0337    0.9284    1.4279 C   0  0  0  0  0  0  0  0  0  0  0  0
    6.0172    1.7649    2.6571 C   0  0  0  0  0  0  0  0  0  0  0  0
    6.7007    2.6816    3.0978 O   0  0  0  0  0  0  0  0  0  0  0  0
    1.1391    0.2798   -0.3498 H   0  0  0  0  0  0  0  0  0  0  0  0
    1.4928    2.6651   -0.0663 H   0  0  0  0  0  0  0  0  0  0  0  0
    2.8180    4.5712    0.7931 H   0  0  0  0  0  0  0  0  0  0  0  0
    4.9129    4.1654    2.0543 H   0  0  0  0  0  0  0  0  0  0  0  0
    4.3649   -0.0934    1.6002 H   0  0  0  0  0  0  0  0  0  0  0  0
    6.3066    0.7103    2.8036 H   0  0  0  0  0  0  0  0  0  0  0  0
  1  2  2  0  0  0  0
  2  3  1  0  0  0  0
  2 11  1  0  0  0  0
  3  4  2  0  0  0  0
  3  8  1  0  0  0  0
  4  5  1  0  0  0  0
  4 12  1  0  0  0  0
  5  6  2  0  0  0  0
  5 13  1  0  0  0  0
  6  7  1  0  0  0  0
  6 14  1  0  0  0  0
  7  8  2  0  0  0  0
  7  9  1  0  0  0  0
  8 15  1  0  0  0  0
  9 10  2  0  0  0  0
  9 16  1  0  0  0  0
M  END
$$$$