2258153 2258152
 OpenBabel01211413473D

 35 37  0  0  0  0  0  0  0  0999 V2000
    7.7380    5.1046   -2.1082 Cl  0  0  0  0  0  0  0  0  0  0  0  0
    7.5879    3.4402   -1.7028 C   0  0  0  0  0  0  0  0  0  0  0  0
    8.6338    2.5639   -1.9659 C   0  0  0  0  0  0  0  0  0  0  0  0
    8.5101    1.2087   -1.6347 C   0  0  0  0  0  0  0  0  0  0  0  0
    7.3472    0.7063   -1.0386 C   0  0  0  0  0  0  0  0  0  0  0  0
    6.3045    1.6162   -0.7844 C   0  0  0  0  0  0  0  0  0  0  0  0
    6.4200    2.9718   -1.1123 C   0  0  0  0  0  0  0  0  0  0  0  0
    7.1590   -0.6355   -0.6804 N   0  0  0  0  0  0  0  0  0  0  0  0
    7.9769   -1.7294   -0.7843 C   0  0  0  0  0  0  0  0  0  0  0  0
    9.1682   -1.6917   -1.2714 N   0  0  0  0  0  0  0  0  0  0  0  0
    9.9383   -2.9187   -1.2956 C   0  0  0  0  0  0  0  0  0  0  0  0
    9.1573   -4.1216   -1.2071 N   0  0  0  0  0  0  0  0  0  0  0  0
    7.9907   -3.9906   -0.5561 C   0  0  0  0  0  0  0  0  0  0  0  0
    7.3973   -2.8794   -0.3094 N   0  0  0  0  0  0  0  0  0  0  0  0
    7.4844   -5.1844   -0.1740 N   0  0  0  0  0  0  0  0  0  0  0  0
   10.9861   -2.8602   -0.1584 C   0  0  0  0  0  0  0  0  0  0  0  0
   12.3335   -3.1047   -0.8274 C   0  0  0  0  0  0  0  0  0  0  0  0
   12.1582   -2.4944   -2.2048 C   0  0  0  0  0  0  0  0  0  0  0  0
   10.7594   -2.9456   -2.6019 C   0  0  0  0  0  0  0  0  0  0  0  0
    9.5507    2.9193   -2.4277 H   0  0  0  0  0  0  0  0  0  0  0  0
    9.3510    0.5596   -1.8597 H   0  0  0  0  0  0  0  0  0  0  0  0
    5.3810    1.2745   -0.3226 H   0  0  0  0  0  0  0  0  0  0  0  0
    5.5971    3.6498   -0.9033 H   0  0  0  0  0  0  0  0  0  0  0  0
    6.2702   -0.8654   -0.2636 H   0  0  0  0  0  0  0  0  0  0  0  0
    9.6890   -4.9428   -0.9501 H   0  0  0  0  0  0  0  0  0  0  0  0
    6.5361   -5.0794    0.1713 H   0  0  0  0  0  0  0  0  0  0  0  0
    7.5237   -5.8792   -0.9096 H   0  0  0  0  0  0  0  0  0  0  0  0
   10.8070   -3.5911    0.6380 H   0  0  0  0  0  0  0  0  0  0  0  0
   10.9988   -1.8687    0.3134 H   0  0  0  0  0  0  0  0  0  0  0  0
   13.1602   -2.6526   -0.2721 H   0  0  0  0  0  0  0  0  0  0  0  0
   12.5236   -4.1814   -0.9096 H   0  0  0  0  0  0  0  0  0  0  0  0
   12.2041   -1.4005   -2.1480 H   0  0  0  0  0  0  0  0  0  0  0  0
   12.9198   -2.8346   -2.9121 H   0  0  0  0  0  0  0  0  0  0  0  0
   10.3427   -2.3029   -3.3853 H   0  0  0  0  0  0  0  0  0  0  0  0
   10.8175   -3.9618   -3.0130 H   0  0  0  0  0  0  0  0  0  0  0  0
  1  2  1  0  0  0  0
  2  3  2  0  0  0  0
  2  7  1  0  0  0  0
  3  4  1  0  0  0  0
  3 20  1  0  0  0  0
  4  5  2  0  0  0  0
  4 21  1  0  0  0  0
  5  6  1  0  0  0  0
  5  8  1  0  0  0  0
  6  7  2  0  0  0  0
  6 22  1  0  0  0  0
  7 23  1  0  0  0  0
  8  9  1  0  0  0  0
  8 24  1  0  0  0  0
  9 14  1  0  0  0  0
  9 10  2  0  0  0  0
 10 11  1  0  0  0  0
 11 12  1  0  0  0  0
 11 19  1  0  0  0  0
 11 16  1  0  0  0  0
 12 13  1  0  0  0  0
 12 25  1  0  0  0  0
 13 14  2  0  0  0  0
 13 15  1  0  0  0  0
 15 26  1  0  0  0  0
 15 27  1  0  0  0  0
 16 17  1  0  0  0  0
 16 28  1  0  0  0  0
 16 29  1  0  0  0  0
 17 18  1  0  0  0  0
 17 30  1  0  0  0  0
 17 31  1  0  0  0  0
 18 19  1  0  0  0  0
 18 32  1  0  0  0  0
 18 33  1  0  0  0  0
 19 34  1  0  0  0  0
 19 35  1  0  0  0  0
M  END
$$$$