1947500 1947499
 OpenBabel01211413453D

 37 38  0  0  1  0  0  0  0  0999 V2000
    3.3584   -0.8569   -0.5541 C   0  0  0  0  0  0  0  0  0  0  0  0
    3.3952   -2.1743    0.2053 C   0  0  3  0  0  0  0  0  0  0  0  0
    1.7885   -2.4791    1.1011 P   0  0  3  0  0  0  0  0  0  0  0  0
    0.6521   -2.3459    0.1187 O   0  0  0  0  0  0  0  0  0  0  0  0
    1.9869   -4.0680    1.4205 O   0  0  0  0  0  0  0  0  0  0  0  0
    3.5141   -3.3760   -0.6572 N   0  0  0  0  0  0  0  0  0  0  0  0
    4.8518   -3.5497   -1.2626 C   0  0  3  0  0  0  0  0  0  0  0  0
    5.9709   -3.5947   -0.2255 C   0  0  0  0  0  0  0  0  0  0  0  0
    7.0397   -2.6856   -0.3038 C   0  0  0  0  0  0  0  0  0  0  0  0
    8.0625   -2.7056    0.6468 C   0  0  0  0  0  0  0  0  0  0  0  0
    8.0331   -3.6338    1.6854 C   0  0  0  0  0  0  0  0  0  0  0  0
    6.9831   -4.5444    1.7753 C   0  0  0  0  0  0  0  0  0  0  0  0
    5.9592   -4.5262    0.8272 C   0  0  0  0  0  0  0  0  0  0  0  0
    4.8975   -4.7851   -2.1674 C   0  0  0  0  0  0  0  0  0  0  0  0
    4.1470   -5.9427   -1.8966 C   0  0  0  0  0  0  0  0  0  0  0  0
    4.2475   -7.0726   -2.7108 C   0  0  0  0  0  0  0  0  0  0  0  0
    5.1076   -7.0675   -3.8059 C   0  0  0  0  0  0  0  0  0  0  0  0
    5.8659   -5.9344   -4.0869 C   0  0  0  0  0  0  0  0  0  0  0  0
    5.7648   -4.8020   -3.2749 C   0  0  0  0  0  0  0  0  0  0  0  0
    4.3264   -0.6239   -1.0076 H   0  0  0  0  0  0  0  0  0  0  0  0
    3.0924   -0.0393    0.1256 H   0  0  0  0  0  0  0  0  0  0  0  0
    2.6011   -0.8748   -1.3453 H   0  0  0  0  0  0  0  0  0  0  0  0
    4.1519   -2.1529    0.9953 H   0  0  0  0  0  0  0  0  0  0  0  0
    1.7429   -1.9067    2.3860 H   0  0  0  0  0  0  0  0  0  0  0  0
    2.3361   -4.4971    0.6047 H   0  0  0  0  0  0  0  0  0  0  0  0
    2.8363   -3.2845   -1.4208 H   0  0  0  0  0  0  0  0  0  0  0  0
    5.0129   -2.6851   -1.9198 H   0  0  0  0  0  0  0  0  0  0  0  0
    7.0833   -1.9533   -1.1067 H   0  0  0  0  0  0  0  0  0  0  0  0
    8.8843   -1.9976    0.5761 H   0  0  0  0  0  0  0  0  0  0  0  0
    8.8302   -3.6504    2.4235 H   0  0  0  0  0  0  0  0  0  0  0  0
    6.9596   -5.2713    2.5829 H   0  0  0  0  0  0  0  0  0  0  0  0
    5.1449   -5.2417    0.9155 H   0  0  0  0  0  0  0  0  0  0  0  0
    3.4836   -5.9815   -1.0362 H   0  0  0  0  0  0  0  0  0  0  0  0
    3.6611   -7.9589   -2.4832 H   0  0  0  0  0  0  0  0  0  0  0  0
    5.1922   -7.9498   -4.4341 H   0  0  0  0  0  0  0  0  0  0  0  0
    6.5462   -5.9346   -4.9349 H   0  0  0  0  0  0  0  0  0  0  0  0
    6.3809   -3.9356   -3.5032 H   0  0  0  0  0  0  0  0  0  0  0  0
  1  2  1  0  0  0  0
  1 20  1  0  0  0  0
  1 21  1  0  0  0  0
  1 22  1  0  0  0  0
  2  6  1  0  0  0  0
  2  3  1  0  0  0  0
  2 23  1  0  0  0  0
  3  5  1  0  0  0  0
  3  4  2  0  0  0  0
  3 24  1  0  0  0  0
  5 25  1  0  0  0  0
  6  7  1  0  0  0  0
  6 26  1  0  0  0  0
  7 14  1  0  0  0  0
  7  8  1  0  0  0  0
  7 27  1  0  0  0  0
  8  9  2  0  0  0  0
  8 13  1  0  0  0  0
  9 10  1  0  0  0  0
  9 28  1  0  0  0  0
 10 11  2  0  0  0  0
 10 29  1  0  0  0  0
 11 12  1  0  0  0  0
 11 30  1  0  0  0  0
 12 13  2  0  0  0  0
 12 31  1  0  0  0  0
 13 32  1  0  0  0  0
 14 15  2  0  0  0  0
 14 19  1  0  0  0  0
 15 16  1  0  0  0  0
 15 33  1  0  0  0  0
 16 17  2  0  0  0  0
 16 34  1  0  0  0  0
 17 18  1  0  0  0  0
 17 35  1  0  0  0  0
 18 19  2  0  0  0  0
 18 36  1  0  0  0  0
 19 37  1  0  0  0  0
M  END
$$$$