481715 481714
 OpenBabel01211413173D

 15 15  0  0  0  0  0  0  0  0999 V2000
    1.5258   -0.2489    0.8777 Cl  0  0  0  0  0  0  0  0  0  0  0  0
    2.8722   -0.0834   -0.1707 C   0  0  0  0  0  0  0  0  0  0  0  0
    3.3220   -0.9904   -0.9772 N   0  0  0  0  0  0  0  0  0  0  0  0
    2.6888   -2.2367   -1.0381 C   0  0  0  0  0  0  0  0  0  0  0  0
    3.1162   -3.2863   -0.2201 C   0  0  0  0  0  0  0  0  0  0  0  0
    2.4978   -4.5360   -0.2933 C   0  0  0  0  0  0  0  0  0  0  0  0
    1.4570   -4.7460   -1.1968 C   0  0  0  0  0  0  0  0  0  0  0  0
    1.0403   -3.7106   -2.0322 C   0  0  0  0  0  0  0  0  0  0  0  0
    1.6602   -2.4617   -1.9572 C   0  0  0  0  0  0  0  0  0  0  0  0
    3.6935    1.4246   -0.1430 Cl  0  0  0  0  0  0  0  0  0  0  0  0
    3.9368   -3.1322    0.4752 H   0  0  0  0  0  0  0  0  0  0  0  0
    2.8328   -5.3460    0.3495 H   0  0  0  0  0  0  0  0  0  0  0  0
    0.9771   -5.7196   -1.2567 H   0  0  0  0  0  0  0  0  0  0  0  0
    0.2379   -3.8765   -2.7463 H   0  0  0  0  0  0  0  0  0  0  0  0
    1.3416   -1.6626   -2.6209 H   0  0  0  0  0  0  0  0  0  0  0  0
  1  2  1  0  0  0  0
  2 10  1  0  0  0  0
  2  3  2  0  0  0  0
  3  4  1  0  0  0  0
  4  5  2  0  0  0  0
  4  9  1  0  0  0  0
  5  6  1  0  0  0  0
  5 11  1  0  0  0  0
  6  7  2  0  0  0  0
  6 12  1  0  0  0  0
  7  8  1  0  0  0  0
  7 13  1  0  0  0  0
  8  9  2  0  0  0  0
  8 14  1  0  0  0  0
  9 15  1  0  0  0  0
M  END
$$$$