30756751 30756750
 OpenBabel01211414073D

 38 40  0  0  0  0  0  0  0  0999 V2000
    4.2031   -1.7365    0.1940 O   0  0  0  0  0  0  0  0  0  0  0  0
    3.5410   -0.8206    0.6753 C   0  0  0  0  0  0  0  0  0  0  0  0
    2.4772   -1.1296    1.6840 C   0  0  0  0  0  0  0  0  0  0  0  0
    2.1642   -2.4773    1.9201 C   0  0  0  0  0  0  0  0  0  0  0  0
    1.2048   -2.8355    2.8748 C   0  0  0  0  0  0  0  0  0  0  0  0
    0.5322   -1.8486    3.6005 C   0  0  0  0  0  0  0  0  0  0  0  0
    0.8435   -0.5048    3.3717 C   0  0  0  0  0  0  0  0  0  0  0  0
    1.8106   -0.1452    2.4247 C   0  0  0  0  0  0  0  0  0  0  0  0
   -0.6727   -2.3081    4.8696 S   0  0  3  0  0  0  0  0  0  0  0  0
   -1.2371   -1.0165    5.3860 O   0  0  0  0  0  0  0  0  0  0  0  0
   -1.9163   -3.0423    3.7794 C   0  0  0  0  0  0  0  0  0  0  0  0
    3.7168    0.5010    0.3288 N   0  0  0  0  0  0  0  0  0  0  0  0
    4.6734    0.9207   -0.6759 C   0  0  0  0  0  0  0  0  0  0  0  0
    3.9301    1.1922   -1.9597 C   0  0  0  0  0  0  0  0  0  0  0  0
    4.5283    0.7820   -3.2841 C   0  0  0  0  0  0  0  0  0  0  0  0
    3.3176    0.0655   -2.7572 C   0  0  0  0  0  0  0  0  0  0  0  0
    5.3509    2.1728   -0.1743 C   0  0  0  0  0  0  0  0  0  0  0  0
    6.6756    2.0885    0.5441 C   0  0  0  0  0  0  0  0  0  0  0  0
    6.6067    2.6906   -0.8317 C   0  0  0  0  0  0  0  0  0  0  0  0
    2.6816   -3.2610    1.3677 H   0  0  0  0  0  0  0  0  0  0  0  0
    1.0062   -3.8901    3.0495 H   0  0  0  0  0  0  0  0  0  0  0  0
    0.3449    0.2766    3.9438 H   0  0  0  0  0  0  0  0  0  0  0  0
    2.0336    0.9102    2.3151 H   0  0  0  0  0  0  0  0  0  0  0  0
   -1.5423   -3.9860    3.3762 H   0  0  0  0  0  0  0  0  0  0  0  0
   -2.1615   -2.3538    2.9672 H   0  0  0  0  0  0  0  0  0  0  0  0
   -2.8159   -3.2392    4.3680 H   0  0  0  0  0  0  0  0  0  0  0  0
    3.0493    1.1939    0.6215 H   0  0  0  0  0  0  0  0  0  0  0  0
    5.4134    0.1254   -0.8276 H   0  0  0  0  0  0  0  0  0  0  0  0
    3.3757    2.1240   -1.9277 H   0  0  0  0  0  0  0  0  0  0  0  0
    5.4664    0.2375   -3.2892 H   0  0  0  0  0  0  0  0  0  0  0  0
    4.3990    1.4483   -4.1287 H   0  0  0  0  0  0  0  0  0  0  0  0
    2.3653    0.2487   -3.2411 H   0  0  0  0  0  0  0  0  0  0  0  0
    3.4454   -0.9515   -2.4018 H   0  0  0  0  0  0  0  0  0  0  0  0
    4.6430    2.9217    0.1652 H   0  0  0  0  0  0  0  0  0  0  0  0
    7.1515    1.1193    0.6478 H   0  0  0  0  0  0  0  0  0  0  0  0
    6.8412    2.7531    1.3843 H   0  0  0  0  0  0  0  0  0  0  0  0
    6.7216    3.7652   -0.9222 H   0  0  0  0  0  0  0  0  0  0  0  0
    7.0319    2.1295   -1.6558 H   0  0  0  0  0  0  0  0  0  0  0  0
  1  2  2  0  0  0  0
  2 12  1  0  0  0  0
  2  3  1  0  0  0  0
  3  4  2  0  0  0  0
  3  8  1  0  0  0  0
  4  5  1  0  0  0  0
  4 20  1  0  0  0  0
  5  6  2  0  0  0  0
  5 21  1  0  0  0  0
  6  7  1  0  0  0  0
  6  9  1  0  0  0  0
  7  8  2  0  0  0  0
  7 22  1  0  0  0  0
  8 23  1  0  0  0  0
  9 11  1  0  0  0  0
  9 10  2  0  0  0  0
 11 24  1  0  0  0  0
 11 25  1  0  0  0  0
 11 26  1  0  0  0  0
 12 13  1  0  0  0  0
 12 27  1  0  0  0  0
 13 17  1  0  0  0  0
 13 14  1  0  0  0  0
 13 28  1  0  0  0  0
 14 16  1  0  0  0  0
 14 15  1  0  0  0  0
 14 29  1  0  0  0  0
 15 16  1  0  0  0  0
 15 30  1  0  0  0  0
 15 31  1  0  0  0  0
 16 32  1  0  0  0  0
 16 33  1  0  0  0  0
 17 19  1  0  0  0  0
 17 18  1  0  0  0  0
 17 34  1  0  0  0  0
 18 19  1  0  0  0  0
 18 35  1  0  0  0  0
 18 36  1  0  0  0  0
 19 37  1  0  0  0  0
 19 38  1  0  0  0  0
M  END
$$$$