614056 614055
 OpenBabel01211413283D

 39 40  0  0  0  0  0  0  0  0999 V2000
    0.6493    0.0097   -2.5794 O   0  0  0  0  0  0  0  0  0  0  0  0
    1.4624   -0.0622   -1.6605 C   0  0  0  0  0  0  0  0  0  0  0  0
    2.0217   -1.3864   -1.2066 C   0  0  0  0  0  0  0  0  0  0  0  0
    3.5344   -1.5066   -1.4597 C   0  0  0  0  0  0  0  0  0  0  0  0
    3.7379   -1.7659   -2.9735 C   0  0  0  0  0  0  0  0  0  0  0  0
    4.0525   -2.7712   -0.7348 C   0  0  0  0  0  0  0  0  0  0  0  0
    4.5305    0.0057   -0.8546 P   0  0  0  0  0  0  0  0  0  0  0  0
    6.2660    0.1385   -1.8091 S   0  0  0  0  0  0  0  0  0  0  0  0
    3.4004    1.4872   -1.2517 C   0  0  0  0  0  0  0  0  0  0  0  0
    1.9332    1.1684   -0.9279 C   0  0  0  0  0  0  0  0  0  0  0  0
    3.5044    1.9406   -2.7241 C   0  0  0  0  0  0  0  0  0  0  0  0
    3.8300    2.6977   -0.3897 C   0  0  0  0  0  0  0  0  0  0  0  0
    4.6473   -0.0444    0.9703 C   0  0  0  0  0  0  0  0  0  0  0  0
    3.5866   -0.3874    1.8187 C   0  0  0  0  0  0  0  0  0  0  0  0
    3.7337   -0.3822    3.2109 C   0  0  0  0  0  0  0  0  0  0  0  0
    4.9454   -0.0219    3.7877 C   0  0  0  0  0  0  0  0  0  0  0  0
    6.0108    0.3346    2.9723 C   0  0  0  0  0  0  0  0  0  0  0  0
    5.8616    0.3242    1.5826 C   0  0  0  0  0  0  0  0  0  0  0  0
    1.4785   -2.1823   -1.7333 H   0  0  0  0  0  0  0  0  0  0  0  0
    1.7576   -1.5162   -0.1564 H   0  0  0  0  0  0  0  0  0  0  0  0
    3.4509   -0.9079   -3.5812 H   0  0  0  0  0  0  0  0  0  0  0  0
    3.1379   -2.6189   -3.3127 H   0  0  0  0  0  0  0  0  0  0  0  0
    4.7795   -2.0054   -3.2077 H   0  0  0  0  0  0  0  0  0  0  0  0
    3.8590   -2.7313    0.3399 H   0  0  0  0  0  0  0  0  0  0  0  0
    5.1333   -2.8841   -0.8680 H   0  0  0  0  0  0  0  0  0  0  0  0
    3.5678   -3.6762   -1.1183 H   0  0  0  0  0  0  0  0  0  0  0  0
    1.7746    1.0066    0.1416 H   0  0  0  0  0  0  0  0  0  0  0  0
    1.2807    2.0051   -1.2070 H   0  0  0  0  0  0  0  0  0  0  0  0
    3.2579    1.1420   -3.4234 H   0  0  0  0  0  0  0  0  0  0  0  0
    4.5118    2.2918   -2.9675 H   0  0  0  0  0  0  0  0  0  0  0  0
    2.8196    2.7723   -2.9286 H   0  0  0  0  0  0  0  0  0  0  0  0
    3.6775    2.5085    0.6771 H   0  0  0  0  0  0  0  0  0  0  0  0
    3.2530    3.5938   -0.6454 H   0  0  0  0  0  0  0  0  0  0  0  0
    4.8910    2.9261   -0.5353 H   0  0  0  0  0  0  0  0  0  0  0  0
    2.6158   -0.6654    1.4372 H   0  0  0  0  0  0  0  0  0  0  0  0
    2.8959   -0.6588    3.8469 H   0  0  0  0  0  0  0  0  0  0  0  0
    5.0587   -0.0160    4.8682 H   0  0  0  0  0  0  0  0  0  0  0  0
    6.9625    0.6240    3.4120 H   0  0  0  0  0  0  0  0  0  0  0  0
    6.7208    0.6198    0.9824 H   0  0  0  0  0  0  0  0  0  0  0  0
  1  2  2  0  0  0  0
  2 10  1  0  0  0  0
  2  3  1  0  0  0  0
  3  4  1  0  0  0  0
  3 19  1  0  0  0  0
  3 20  1  0  0  0  0
  4  7  1  0  0  0  0
  4  6  1  0  0  0  0
  4  5  1  0  0  0  0
  5 21  1  0  0  0  0
  5 22  1  0  0  0  0
  5 23  1  0  0  0  0
  6 24  1  0  0  0  0
  6 25  1  0  0  0  0
  6 26  1  0  0  0  0
  7  9  1  0  0  0  0
  7 13  1  0  0  0  0
  7  8  2  0  0  0  0
  9 10  1  0  0  0  0
  9 12  1  0  0  0  0
  9 11  1  0  0  0  0
 10 27  1  0  0  0  0
 10 28  1  0  0  0  0
 11 29  1  0  0  0  0
 11 30  1  0  0  0  0
 11 31  1  0  0  0  0
 12 32  1  0  0  0  0
 12 33  1  0  0  0  0
 12 34  1  0  0  0  0
 13 14  2  0  0  0  0
 13 18  1  0  0  0  0
 14 15  1  0  0  0  0
 14 35  1  0  0  0  0
 15 16  2  0  0  0  0
 15 36  1  0  0  0  0
 16 17  1  0  0  0  0
 16 37  1  0  0  0  0
 17 18  2  0  0  0  0
 17 38  1  0  0  0  0
 18 39  1  0  0  0  0
M  END
$$$$