2801592 2801591
 OpenBabel01211413503D

 52 54  0  0  1  0  0  0  0  0999 V2000
    1.9310    7.6710    3.7881 O   0  0  0  0  0  0  0  0  0  0  0  0
    2.4044    6.4154    3.6403 C   0  0  0  0  0  0  0  0  0  0  0  0
    2.4779    5.6416    4.5869 O   0  0  0  0  0  0  0  0  0  0  0  0
    2.8490    6.0334    2.2376 C   0  0  3  0  0  0  0  0  0  0  0  0
    2.0966    6.7117    1.0642 C   0  0  3  0  0  0  0  0  0  0  0  0
    0.7299    6.0508    0.8557 C   0  0  0  0  0  0  0  0  0  0  0  0
    0.5115    5.2698   -0.2919 C   0  0  0  0  0  0  0  0  0  0  0  0
   -0.7272    4.6646   -0.5214 C   0  0  0  0  0  0  0  0  0  0  0  0
   -1.7702    4.8250    0.3929 C   0  0  0  0  0  0  0  0  0  0  0  0
   -1.5713    5.5973    1.5399 C   0  0  0  0  0  0  0  0  0  0  0  0
   -0.3300    6.2071    1.7664 C   0  0  0  0  0  0  0  0  0  0  0  0
   -2.8162    5.8485    2.7116 Cl  0  0  0  0  0  0  0  0  0  0  0  0
   -3.2734    4.0508    0.0406 Cl  0  0  0  0  0  0  0  0  0  0  0  0
    2.0141    8.1939    1.1719 N   0  0  0  0  0  0  0  0  0  0  0  0
    1.3196    8.7695   -0.0113 C   0  0  0  0  0  0  0  0  0  0  0  0
    1.3858   10.2798   -0.1272 C   0  0  0  0  0  0  0  0  0  0  0  0
    1.3567   11.1082    0.9924 C   0  0  0  0  0  0  0  0  0  0  0  0
    1.3339   12.4890    0.8082 C   0  0  0  0  0  0  0  0  0  0  0  0
    1.3132   13.0077   -0.4802 C   0  0  0  0  0  0  0  0  0  0  0  0
    1.3320   12.1191   -1.5396 C   0  0  0  0  0  0  0  0  0  0  0  0
    1.3776   10.7764   -1.3921 N   0  0  0  0  0  0  0  0  0  0  0  0
    4.3862    6.0817    2.1486 C   0  0  0  0  0  0  0  0  0  0  0  0
    5.0020    7.4092    2.2420 N   0  0  0  0  0  0  0  0  0  0  0  0
    6.4507    7.2662    2.5148 C   0  0  0  0  0  0  0  0  0  0  0  0
    7.1194    8.5768    2.8781 C   0  0  0  0  0  0  0  0  0  0  0  0
    7.4359    9.5105    1.8938 C   0  0  0  0  0  0  0  0  0  0  0  0
    8.0469   10.7042    2.2729 C   0  0  0  0  0  0  0  0  0  0  0  0
    8.3206   10.9357    3.6153 C   0  0  0  0  0  0  0  0  0  0  0  0
    7.9770    9.9573    4.5300 C   0  0  0  0  0  0  0  0  0  0  0  0
    7.3896    8.7896    4.1909 N   0  0  0  0  0  0  0  0  0  0  0  0
    1.9319    8.1661    2.9347 H   0  0  0  0  0  0  0  0  0  0  0  0
    2.5996    4.9618    2.1696 H   0  0  0  0  0  0  0  0  0  0  0  0
    2.6915    6.5034    0.1630 H   0  0  0  0  0  0  0  0  0  0  0  0
    1.3020    5.1291   -1.0277 H   0  0  0  0  0  0  0  0  0  0  0  0
   -0.8737    4.0695   -1.4203 H   0  0  0  0  0  0  0  0  0  0  0  0
   -0.2074    6.8176    2.6583 H   0  0  0  0  0  0  0  0  0  0  0  0
    2.9696    8.5645    1.1438 H   0  0  0  0  0  0  0  0  0  0  0  0
    0.2549    8.5121    0.0103 H   0  0  0  0  0  0  0  0  0  0  0  0
    1.7555    8.3495   -0.9271 H   0  0  0  0  0  0  0  0  0  0  0  0
    1.3374   10.6970    1.9962 H   0  0  0  0  0  0  0  0  0  0  0  0
    1.3141   13.1544    1.6668 H   0  0  0  0  0  0  0  0  0  0  0  0
    1.2736   14.0768   -0.6545 H   0  0  0  0  0  0  0  0  0  0  0  0
    1.3024   12.4715   -2.5670 H   0  0  0  0  0  0  0  0  0  0  0  0
    4.7023    5.6159    1.2058 H   0  0  0  0  0  0  0  0  0  0  0  0
    4.7730    5.4416    2.9537 H   0  0  0  0  0  0  0  0  0  0  0  0
    4.9115    7.9216    1.3702 H   0  0  0  0  0  0  0  0  0  0  0  0
    6.9535    6.8402    1.6371 H   0  0  0  0  0  0  0  0  0  0  0  0
    6.6184    6.5704    3.3472 H   0  0  0  0  0  0  0  0  0  0  0  0
    7.2197    9.3164    0.8495 H   0  0  0  0  0  0  0  0  0  0  0  0
    8.3056   11.4491    1.5264 H   0  0  0  0  0  0  0  0  0  0  0  0
    8.7900   11.8569    3.9426 H   0  0  0  0  0  0  0  0  0  0  0  0
    8.1674   10.0865    5.5913 H   0  0  0  0  0  0  0  0  0  0  0  0
  1  2  1  0  0  0  0
  1 31  1  0  0  0  0
  2  4  1  0  0  0  0
  2  3  2  0  0  0  0
  4 22  1  0  0  0  0
  4  5  1  0  0  0  0
  4 32  1  0  0  0  0
  5 14  1  0  0  0  0
  5  6  1  0  0  0  0
  5 33  1  0  0  0  0
  6  7  2  0  0  0  0
  6 11  1  0  0  0  0
  7  8  1  0  0  0  0
  7 34  1  0  0  0  0
  8  9  2  0  0  0  0
  8 35  1  0  0  0  0
  9 10  1  0  0  0  0
  9 13  1  0  0  0  0
 10 11  2  0  0  0  0
 10 12  1  0  0  0  0
 11 36  1  0  0  0  0
 14 15  1  0  0  0  0
 14 37  1  0  0  0  0
 15 16  1  0  0  0  0
 15 38  1  0  0  0  0
 15 39  1  0  0  0  0
 16 17  2  0  0  0  0
 16 21  1  0  0  0  0
 17 18  1  0  0  0  0
 17 40  1  0  0  0  0
 18 19  2  0  0  0  0
 18 41  1  0  0  0  0
 19 20  1  0  0  0  0
 19 42  1  0  0  0  0
 20 21  2  0  0  0  0
 20 43  1  0  0  0  0
 22 23  1  0  0  0  0
 22 44  1  0  0  0  0
 22 45  1  0  0  0  0
 23 24  1  0  0  0  0
 23 46  1  0  0  0  0
 24 25  1  0  0  0  0
 24 47  1  0  0  0  0
 24 48  1  0  0  0  0
 25 26  2  0  0  0  0
 25 30  1  0  0  0  0
 26 27  1  0  0  0  0
 26 49  1  0  0  0  0
 27 28  2  0  0  0  0
 27 50  1  0  0  0  0
 28 29  1  0  0  0  0
 28 51  1  0  0  0  0
 29 30  2  0  0  0  0
 29 52  1  0  0  0  0
M  END
$$$$