484578 484577
 OpenBabel01211413183D

 12 11  0  0  0  0  0  0  0  0999 V2000
    0.8184   -0.3036    0.2912 S   0  0  0  0  0  0  0  0  0  0  0  0
    2.4523   -0.1183    0.0024 C   0  0  0  0  0  0  0  0  0  0  0  0
    3.1239   -0.2464   -1.2077 N   0  0  0  0  0  0  0  0  0  0  0  0
    2.4797   -0.6257   -2.4614 C   0  0  0  0  0  0  0  0  0  0  0  0
    4.5777   -0.2215   -1.2203 C   0  0  0  0  0  0  0  0  0  0  0  0
    3.1334    0.1472    0.8290 H   0  0  0  0  0  0  0  0  0  0  0  0
    1.4055   -0.4335   -2.4512 H   0  0  0  0  0  0  0  0  0  0  0  0
    2.6520   -1.6929   -2.6302 H   0  0  0  0  0  0  0  0  0  0  0  0
    2.9252   -0.0505   -3.2786 H   0  0  0  0  0  0  0  0  0  0  0  0
    4.9809    0.1022   -0.2568 H   0  0  0  0  0  0  0  0  0  0  0  0
    4.9157    0.4694   -1.9980 H   0  0  0  0  0  0  0  0  0  0  0  0
    4.9443   -1.2289   -1.4377 H   0  0  0  0  0  0  0  0  0  0  0  0
  1  2  2  0  0  0  0
  2  3  1  0  0  0  0
  2  6  1  0  0  0  0
  3  5  1  0  0  0  0
  3  4  1  0  0  0  0
  4  7  1  0  0  0  0
  4  8  1  0  0  0  0
  4  9  1  0  0  0  0
  5 10  1  0  0  0  0
  5 11  1  0  0  0  0
  5 12  1  0  0  0  0
M  END
$$$$