486716 486715
 OpenBabel01211413183D

 10  9  0  0  0  0  0  0  0  0999 V2000
    0.8744   -0.0209    0.0713 C   0  0  0  0  0  0  0  0  0  0  0  0
    2.3645    0.0267    0.0201 C   0  0  0  0  0  0  0  0  0  0  0  0
    3.0502    0.7974   -0.7722 C   0  0  0  0  0  0  0  0  0  0  0  0
    3.7336    1.5658   -1.5627 C   0  0  0  0  0  0  0  0  0  0  0  0
    0.5467   -0.7492    0.8199 H   0  0  0  0  0  0  0  0  0  0  0  0
    0.4612   -0.3216   -0.8967 H   0  0  0  0  0  0  0  0  0  0  0  0
    0.4629    0.9554    0.3463 H   0  0  0  0  0  0  0  0  0  0  0  0
    2.9045   -0.6324    0.6938 H   0  0  0  0  0  0  0  0  0  0  0  0
    4.4491    2.2746   -1.1623 H   0  0  0  0  0  0  0  0  0  0  0  0
    3.5980    1.5140   -2.6367 H   0  0  0  0  0  0  0  0  0  0  0  0
  1  2  1  0  0  0  0
  1  5  1  0  0  0  0
  1  6  1  0  0  0  0
  1  7  1  0  0  0  0
  2  3  2  0  0  0  0
  2  8  1  0  0  0  0
  3  4  2  0  0  0  0
  4  9  1  0  0  0  0
  4 10  1  0  0  0  0
M  END
$$$$