627611 627610
 OpenBabel01211413293D

 33 34  0  0  0  0  0  0  0  0999 V2000
    0.5929    1.5247    0.7185 O   0  0  0  0  0  0  0  0  0  0  0  0
    1.4398    0.7329    0.3153 C   0  0  0  0  0  0  0  0  0  0  0  0
    2.4618    1.1143   -0.7191 C   0  0  0  0  0  0  0  0  0  0  0  0
    1.8642    1.4117   -2.0656 C   0  0  0  0  0  0  0  0  0  0  0  0
    1.7834    0.5572   -2.9435 O   0  0  0  0  0  0  0  0  0  0  0  0
    1.4702    2.7176   -2.2408 N   0  0  0  0  0  0  0  0  0  0  0  0
    0.8562    3.1269   -3.4835 C   0  0  0  0  0  0  0  0  0  0  0  0
    0.5706    4.5788   -3.4119 C   0  0  0  0  0  0  0  0  0  0  0  0
    1.3073    5.7113   -3.6953 C   0  0  0  0  0  0  0  0  0  0  0  0
    0.4716    6.8156   -3.3979 C   0  0  0  0  0  0  0  0  0  0  0  0
   -0.7176    6.2879   -2.9537 C   0  0  0  0  0  0  0  0  0  0  0  0
   -0.6650    4.9319   -2.9533 O   0  0  0  0  0  0  0  0  0  0  0  0
    1.5749   -0.5461    0.8015 N   0  0  0  0  0  0  0  0  0  0  0  0
    0.6551   -1.0665    1.7881 C   0  0  0  0  0  0  0  0  0  0  0  0
    1.1116   -2.4243    2.1696 C   0  0  0  0  0  0  0  0  0  0  0  0
    1.9474   -2.9087    3.1551 C   0  0  0  0  0  0  0  0  0  0  0  0
    2.0149   -4.3110    2.9684 C   0  0  0  0  0  0  0  0  0  0  0  0
    1.2174   -4.5926    1.8846 C   0  0  0  0  0  0  0  0  0  0  0  0
    0.6705   -3.4537    1.3887 O   0  0  0  0  0  0  0  0  0  0  0  0
    3.2084    0.3223   -0.8460 H   0  0  0  0  0  0  0  0  0  0  0  0
    3.0079    1.9900   -0.3499 H   0  0  0  0  0  0  0  0  0  0  0  0
    1.2153    3.2402   -1.4084 H   0  0  0  0  0  0  0  0  0  0  0  0
   -0.0596    2.5455   -3.6334 H   0  0  0  0  0  0  0  0  0  0  0  0
    1.5425    2.9000   -4.3067 H   0  0  0  0  0  0  0  0  0  0  0  0
    2.3233    5.7347   -4.0648 H   0  0  0  0  0  0  0  0  0  0  0  0
    0.7054    7.8665   -3.4929 H   0  0  0  0  0  0  0  0  0  0  0  0
   -1.6495    6.7181   -2.6144 H   0  0  0  0  0  0  0  0  0  0  0  0
    2.0658   -1.2274    0.2341 H   0  0  0  0  0  0  0  0  0  0  0  0
   -0.3501   -1.0888    1.3548 H   0  0  0  0  0  0  0  0  0  0  0  0
    0.6425   -0.3927    2.6519 H   0  0  0  0  0  0  0  0  0  0  0  0
    2.4537   -2.3199    3.9082 H   0  0  0  0  0  0  0  0  0  0  0  0
    2.5771   -5.0292    3.5484 H   0  0  0  0  0  0  0  0  0  0  0  0
    0.9516   -5.5026    1.3647 H   0  0  0  0  0  0  0  0  0  0  0  0
  1  2  2  0  0  0  0
  2 13  1  0  0  0  0
  2  3  1  0  0  0  0
  3  4  1  0  0  0  0
  3 20  1  0  0  0  0
  3 21  1  0  0  0  0
  4  6  1  0  0  0  0
  4  5  2  0  0  0  0
  6  7  1  0  0  0  0
  6 22  1  0  0  0  0
  7  8  1  0  0  0  0
  7 23  1  0  0  0  0
  7 24  1  0  0  0  0
  8  9  2  0  0  0  0
  8 12  1  0  0  0  0
  9 10  1  0  0  0  0
  9 25  1  0  0  0  0
 10 11  2  0  0  0  0
 10 26  1  0  0  0  0
 11 12  1  0  0  0  0
 11 27  1  0  0  0  0
 13 14  1  0  0  0  0
 13 28  1  0  0  0  0
 14 15  1  0  0  0  0
 14 29  1  0  0  0  0
 14 30  1  0  0  0  0
 15 16  2  0  0  0  0
 15 19  1  0  0  0  0
 16 17  1  0  0  0  0
 16 31  1  0  0  0  0
 17 18  2  0  0  0  0
 17 32  1  0  0  0  0
 18 19  1  0  0  0  0
 18 33  1  0  0  0  0
M  END
$$$$