17279949 17279948
 OpenBabel01211414013D

 34 35  0  0  1  0  0  0  0  0999 V2000
    3.1971   -1.9306    2.3760 C   0  0  0  0  0  0  0  0  0  0  0  0
    2.6882   -1.0890    1.2143 C   0  0  3  0  0  0  0  0  0  0  0  0
    2.7545    0.4051    1.5432 C   0  0  3  0  0  0  0  0  0  0  0  0
    1.7663    0.9710    2.6221 C   0  0  3  0  0  0  0  0  0  0  0  0
    2.3243    2.0849    3.5011 C   0  0  0  0  0  0  0  0  0  0  0  0
    3.0521    3.1861    2.7850 C   0  0  0  0  0  0  0  0  0  0  0  0
    3.2255    3.4308    1.4755 C   0  0  0  0  0  0  0  0  0  0  0  0
    2.7522    2.6852    0.2640 C   0  0  0  0  0  0  0  0  0  0  0  0
    2.0341    1.3707    0.5352 C   0  0  3  0  0  0  0  0  0  0  0  0
    0.7714    1.2815    1.4597 C   0  0  3  0  0  0  0  0  0  0  0  0
   -0.3594    2.3024    1.5885 C   0  0  3  0  0  0  0  0  0  0  0  0
    0.0872    3.5691    2.0430 O   0  0  0  0  0  0  0  0  0  0  0  0
   -1.0912    2.4726    0.2650 C   0  0  0  0  0  0  0  0  0  0  0  0
    3.5055   -1.3367    0.0706 O   0  0  0  0  0  0  0  0  0  0  0  0
    3.2379   -2.9880    2.0936 H   0  0  0  0  0  0  0  0  0  0  0  0
    2.5550   -1.8303    3.2557 H   0  0  0  0  0  0  0  0  0  0  0  0
    4.2135   -1.6377    2.6614 H   0  0  0  0  0  0  0  0  0  0  0  0
    1.6710   -1.4012    0.9582 H   0  0  0  0  0  0  0  0  0  0  0  0
    3.8053    0.6673    1.7319 H   0  0  0  0  0  0  0  0  0  0  0  0
    1.3584    0.2000    3.2904 H   0  0  0  0  0  0  0  0  0  0  0  0
    3.0266    1.6399    4.2176 H   0  0  0  0  0  0  0  0  0  0  0  0
    1.5161    2.5238    4.0974 H   0  0  0  0  0  0  0  0  0  0  0  0
    3.5010    3.9065    3.4711 H   0  0  0  0  0  0  0  0  0  0  0  0
    3.8050    4.3225    1.2288 H   0  0  0  0  0  0  0  0  0  0  0  0
    3.6303    2.4810   -0.3618 H   0  0  0  0  0  0  0  0  0  0  0  0
    2.1036    3.3449   -0.3237 H   0  0  0  0  0  0  0  0  0  0  0  0
    1.8373    0.9036   -0.4410 H   0  0  0  0  0  0  0  0  0  0  0  0
    0.2277    0.3502    1.2117 H   0  0  0  0  0  0  0  0  0  0  0  0
   -1.0736    1.9416    2.3375 H   0  0  0  0  0  0  0  0  0  0  0  0
    0.6885    3.9425    1.3781 H   0  0  0  0  0  0  0  0  0  0  0  0
   -0.4203    2.8511   -0.5133 H   0  0  0  0  0  0  0  0  0  0  0  0
   -1.9023    3.2015    0.3677 H   0  0  0  0  0  0  0  0  0  0  0  0
   -1.5147    1.5238   -0.0799 H   0  0  0  0  0  0  0  0  0  0  0  0
    4.4278   -1.1476    0.3168 H   0  0  0  0  0  0  0  0  0  0  0  0
  1  2  1  0  0  0  0
  1 15  1  0  0  0  0
  1 16  1  0  0  0  0
  1 17  1  0  0  0  0
  2 14  1  0  0  0  0
  2  3  1  0  0  0  0
  2 18  1  0  0  0  0
  3  4  1  0  0  0  0
  3  9  1  0  0  0  0
  3 19  1  0  0  0  0
  4  5  1  0  0  0  0
  4 10  1  0  0  0  0
  4 20  1  0  0  0  0
  5  6  1  0  0  0  0
  5 21  1  0  0  0  0
  5 22  1  0  0  0  0
  6  7  2  0  0  0  0
  6 23  1  0  0  0  0
  7  8  1  0  0  0  0
  7 24  1  0  0  0  0
  8  9  1  0  0  0  0
  8 25  1  0  0  0  0
  8 26  1  0  0  0  0
  9 10  1  0  0  0  0
  9 27  1  0  0  0  0
 10 11  1  0  0  0  0
 10 28  1  0  0  0  0
 11 13  1  0  0  0  0
 11 12  1  0  0  0  0
 11 29  1  0  0  0  0
 12 30  1  0  0  0  0
 13 31  1  0  0  0  0
 13 32  1  0  0  0  0
 13 33  1  0  0  0  0
 14 34  1  0  0  0  0
M  END
$$$$