522605 522604
 OpenBabel01211413223D

 28 29  0  0  1  0  0  0  0  0999 V2000
    3.2467   -0.7777    1.5089 C   0  0  0  0  0  0  0  0  0  0  0  0
    2.4762    0.0215    0.4481 C   0  0  2  0  0  0  0  0  0  0  0  0
    2.8205   -0.3358   -0.5333 H   0  0  0  0  0  0  0  0  0  0  0  0
    2.8028    1.5059    0.5629 C   0  0  0  0  0  0  0  0  0  0  0  0
    2.4806    2.2369    1.7196 C   0  0  0  0  0  0  0  0  0  0  0  0
    2.7887    3.5946    1.8171 C   0  0  0  0  0  0  0  0  0  0  0  0
    3.4193    4.2430    0.7585 C   0  0  0  0  0  0  0  0  0  0  0  0
    3.7399    3.5351   -0.3982 C   0  0  0  0  0  0  0  0  0  0  0  0
    3.4338    2.1756   -0.4969 C   0  0  0  0  0  0  0  0  0  0  0  0
    1.0282   -0.1974    0.6240 N   0  0  0  0  0  0  0  0  0  0  0  0
    0.2712   -0.1700   -0.6274 C   0  0  0  0  0  0  0  0  0  0  0  0
    0.5438   -1.4780    0.0731 C   0  0  2  0  0  0  0  0  0  0  0  0
    1.2583   -2.1531   -0.3829 H   0  0  0  0  0  0  0  0  0  0  0  0
   -0.5386   -2.1386    0.8476 C   0  0  0  0  0  0  0  0  0  0  0  0
   -1.2801   -2.9605    0.3289 O   0  0  0  0  0  0  0  0  0  0  0  0
   -0.6368   -1.7673    2.1556 N   0  0  0  0  0  0  0  0  0  0  0  0
    4.3221   -0.5765    1.4428 H   0  0  0  0  0  0  0  0  0  0  0  0
    3.1033   -1.8551    1.3706 H   0  0  0  0  0  0  0  0  0  0  0  0
    2.9265   -0.5298    2.5274 H   0  0  0  0  0  0  0  0  0  0  0  0
    1.9767    1.7490    2.5510 H   0  0  0  0  0  0  0  0  0  0  0  0
    2.5319    4.1452    2.7182 H   0  0  0  0  0  0  0  0  0  0  0  0
    3.6571    5.3007    0.8335 H   0  0  0  0  0  0  0  0  0  0  0  0
    4.2279    4.0432   -1.2258 H   0  0  0  0  0  0  0  0  0  0  0  0
    3.6917    1.6444   -1.4100 H   0  0  0  0  0  0  0  0  0  0  0  0
    0.7929    0.0341   -1.5547 H   0  0  0  0  0  0  0  0  0  0  0  0
   -0.7282    0.2452   -0.5700 H   0  0  0  0  0  0  0  0  0  0  0  0
   -0.1146   -0.9525    2.4570 H   0  0  0  0  0  0  0  0  0  0  0  0
   -1.4335   -2.0821    2.6888 H   0  0  0  0  0  0  0  0  0  0  0  0
  1 17  1  0  0  0  0
  1 18  1  0  0  0  0
  1 19  1  0  0  0  0
  2  4  1  0  0  0  0
  2  3  1  6  0  0  0
  2 10  1  0  0  0  0
  2  1  1  0  0  0  0
  4  5  2  0  0  0  0
  4  9  1  0  0  0  0
  5  6  1  0  0  0  0
  5 20  1  0  0  0  0
  6  7  2  0  0  0  0
  6 21  1  0  0  0  0
  7  8  1  0  0  0  0
  7 22  1  0  0  0  0
  8  9  2  0  0  0  0
  8 23  1  0  0  0  0
  9 24  1  0  0  0  0
 10 12  1  0  0  0  0
 10 11  1  0  0  0  0
 11 12  1  0  0  0  0
 11 25  1  0  0  0  0
 11 26  1  0  0  0  0
 12 14  1  0  0  0  0
 12 13  1  6  0  0  0
 14 16  1  0  0  0  0
 14 15  2  0  0  0  0
 16 27  1  0  0  0  0
 16 28  1  0  0  0  0
M  END
$$$$