480899 480898
 OpenBabel01211413173D

 18 18  0  0  0  0  0  0  0  0999 V2000
    1.0100   -0.4742    1.2883 C   0  0  0  0  0  0  0  0  0  0  0  0
    2.4465   -0.7221    1.1994 N   0  0  0  0  0  0  0  0  0  0  0  0
    3.1478    0.3609    1.1665 C   0  0  0  0  0  0  0  0  0  0  0  0
    4.6208    0.3387    1.0765 C   0  0  0  0  0  0  0  0  0  0  0  0
    5.3145    1.5519    1.0449 C   0  0  0  0  0  0  0  0  0  0  0  0
    6.7079    1.5502    0.9600 C   0  0  0  0  0  0  0  0  0  0  0  0
    7.4039    0.3416    0.9071 C   0  0  0  0  0  0  0  0  0  0  0  0
    6.7098   -0.8685    0.9388 C   0  0  0  0  0  0  0  0  0  0  0  0
    5.3170   -0.8723    1.0236 C   0  0  0  0  0  0  0  0  0  0  0  0
    0.4799   -1.4312    1.2658 H   0  0  0  0  0  0  0  0  0  0  0  0
    0.6538    0.1233    0.4422 H   0  0  0  0  0  0  0  0  0  0  0  0
    0.7526    0.0284    2.2267 H   0  0  0  0  0  0  0  0  0  0  0  0
    2.6709    1.3577    1.2049 H   0  0  0  0  0  0  0  0  0  0  0  0
    4.7840    2.4993    1.0854 H   0  0  0  0  0  0  0  0  0  0  0  0
    7.2528    2.4907    0.9350 H   0  0  0  0  0  0  0  0  0  0  0  0
    8.4891    0.3419    0.8410 H   0  0  0  0  0  0  0  0  0  0  0  0
    7.2523   -1.8097    0.8975 H   0  0  0  0  0  0  0  0  0  0  0  0
    4.7786   -1.8169    1.0481 H   0  0  0  0  0  0  0  0  0  0  0  0
  1  2  1  0  0  0  0
  1 10  1  0  0  0  0
  1 11  1  0  0  0  0
  1 12  1  0  0  0  0
  2  3  2  3  0  0  0
  3  4  1  0  0  0  0
  3 13  1  0  0  0  0
  4  5  2  0  0  0  0
  4  9  1  0  0  0  0
  5  6  1  0  0  0  0
  5 14  1  0  0  0  0
  6  7  2  0  0  0  0
  6 15  1  0  0  0  0
  7  8  1  0  0  0  0
  7 16  1  0  0  0  0
  8  9  2  0  0  0  0
  8 17  1  0  0  0  0
  9 18  1  0  0  0  0
M  END
$$$$