29490265 29490264
 OpenBabel01211414063D

 37 38  0  0  0  0  0  0  0  0999 V2000
    5.1123    0.5300   -2.6517 S   0  0  0  0  0  0  0  0  0  0  0  0
    5.0111   -0.5284   -1.3491 C   0  0  0  0  0  0  0  0  0  0  0  0
    3.7961   -0.8268   -0.6724 N   0  0  0  0  0  0  0  0  0  0  0  0
    3.8500   -1.3876    0.6358 N   0  0  0  0  0  0  0  0  0  0  0  0
    2.5032   -0.2513   -1.0475 C   0  0  0  0  0  0  0  0  0  0  0  0
    6.0690   -1.2742   -0.8316 N   0  0  0  0  0  0  0  0  0  0  0  0
    7.4576   -1.0913   -0.9727 C   0  0  0  0  0  0  0  0  0  0  0  0
    8.0743    0.1556   -1.0659 C   0  0  0  0  0  0  0  0  0  0  0  0
    9.4763    0.2561   -1.1524 C   0  0  0  0  0  0  0  0  0  0  0  0
   10.2892   -0.8851   -1.1450 C   0  0  0  0  0  0  0  0  0  0  0  0
    9.6581   -2.1207   -1.0442 C   0  0  0  0  0  0  0  0  0  0  0  0
    8.2775   -2.2107   -0.9398 C   0  0  0  0  0  0  0  0  0  0  0  0
    7.8128   -3.4995   -0.8210 O   0  0  0  0  0  0  0  0  0  0  0  0
    8.9741   -4.3450   -1.0611 C   0  0  0  0  0  0  0  0  0  0  0  0
   10.2509   -3.4782   -0.9856 C   0  0  0  0  0  0  0  0  0  0  0  0
    8.8081   -4.9865   -2.4450 C   0  0  0  0  0  0  0  0  0  0  0  0
    8.9836   -5.4309    0.0162 C   0  0  0  0  0  0  0  0  0  0  0  0
   11.7791   -0.7728   -1.2291 C   0  0  0  0  0  0  0  0  0  0  0  0
    4.7272   -1.0844    1.0689 H   0  0  0  0  0  0  0  0  0  0  0  0
    3.8957   -2.4030    0.5492 H   0  0  0  0  0  0  0  0  0  0  0  0
    2.3121   -0.4503   -2.1055 H   0  0  0  0  0  0  0  0  0  0  0  0
    2.5230    0.8292   -0.8755 H   0  0  0  0  0  0  0  0  0  0  0  0
    1.7010   -0.7046   -0.4568 H   0  0  0  0  0  0  0  0  0  0  0  0
    5.8008   -2.2188   -0.5793 H   0  0  0  0  0  0  0  0  0  0  0  0
    7.4939    1.0727   -1.0329 H   0  0  0  0  0  0  0  0  0  0  0  0
    9.9215    1.2472   -1.2137 H   0  0  0  0  0  0  0  0  0  0  0  0
   10.7865   -3.6101   -0.0387 H   0  0  0  0  0  0  0  0  0  0  0  0
   10.9358   -3.6709   -1.8159 H   0  0  0  0  0  0  0  0  0  0  0  0
    8.7527   -4.2238   -3.2302 H   0  0  0  0  0  0  0  0  0  0  0  0
    7.8729   -5.5553   -2.5004 H   0  0  0  0  0  0  0  0  0  0  0  0
    9.6388   -5.6613   -2.6765 H   0  0  0  0  0  0  0  0  0  0  0  0
    9.0280   -4.9851    1.0163 H   0  0  0  0  0  0  0  0  0  0  0  0
    9.8366   -6.1069   -0.1023 H   0  0  0  0  0  0  0  0  0  0  0  0
    8.0617   -6.0224   -0.0168 H   0  0  0  0  0  0  0  0  0  0  0  0
   12.0993    0.2728   -1.2863 H   0  0  0  0  0  0  0  0  0  0  0  0
   12.1478   -1.2846   -2.1237 H   0  0  0  0  0  0  0  0  0  0  0  0
   12.2434   -1.2153   -0.3419 H   0  0  0  0  0  0  0  0  0  0  0  0
  1  2  2  0  0  0  0
  2  6  1  0  0  0  0
  2  3  1  0  0  0  0
  3  5  1  0  0  0  0
  3  4  1  0  0  0  0
  4 19  1  0  0  0  0
  4 20  1  0  0  0  0
  5 21  1  0  0  0  0
  5 22  1  0  0  0  0
  5 23  1  0  0  0  0
  6  7  1  0  0  0  0
  6 24  1  0  0  0  0
  7  8  2  0  0  0  0
  7 12  1  0  0  0  0
  8  9  1  0  0  0  0
  8 25  1  0  0  0  0
  9 10  2  0  0  0  0
  9 26  1  0  0  0  0
 10 11  1  0  0  0  0
 10 18  1  0  0  0  0
 11 15  1  0  0  0  0
 11 12  2  0  0  0  0
 12 13  1  0  0  0  0
 13 14  1  0  0  0  0
 14 15  1  0  0  0  0
 14 17  1  0  0  0  0
 14 16  1  0  0  0  0
 15 27  1  0  0  0  0
 15 28  1  0  0  0  0
 16 29  1  0  0  0  0
 16 30  1  0  0  0  0
 16 31  1  0  0  0  0
 17 32  1  0  0  0  0
 17 33  1  0  0  0  0
 17 34  1  0  0  0  0
 18 35  1  0  0  0  0
 18 36  1  0  0  0  0
 18 37  1  0  0  0  0
M  END
$$$$