490201 490200
 OpenBabel01211413183D

 25 26  0  0  0  0  0  0  0  0999 V2000
    0.9806   -0.0284    0.0939 Cl  0  0  0  0  0  0  0  0  0  0  0  0
    3.0706   -0.0284    0.0939 P   0  0  3  0  0  0  0  0  0  0  0  0
    2.9685    0.6038   -1.3071 O   0  0  0  0  0  0  0  0  0  0  0  0
    2.9517    1.2236    1.4673 C   0  0  0  0  0  0  0  0  0  0  0  0
    2.9358    0.7949    2.8046 C   0  0  0  0  0  0  0  0  0  0  0  0
    2.8401    1.7300    3.8350 C   0  0  0  0  0  0  0  0  0  0  0  0
    2.7653    3.0914    3.5391 C   0  0  0  0  0  0  0  0  0  0  0  0
    2.7824    3.5244    2.2130 C   0  0  0  0  0  0  0  0  0  0  0  0
    2.8729    2.5955    1.1779 C   0  0  0  0  0  0  0  0  0  0  0  0
    4.8626   -0.0284    0.0939 C   0  0  0  0  0  0  0  0  0  0  0  0
    5.5375   -1.1212    0.6641 C   0  0  0  0  0  0  0  0  0  0  0  0
    6.9339   -1.1595    0.6975 C   0  0  0  0  0  0  0  0  0  0  0  0
    7.6758   -0.1102    0.1595 C   0  0  0  0  0  0  0  0  0  0  0  0
    7.0251    0.9784   -0.4150 C   0  0  0  0  0  0  0  0  0  0  0  0
    5.6308    1.0178   -0.4474 C   0  0  0  0  0  0  0  0  0  0  0  0
    2.9871   -0.2632    3.0454 H   0  0  0  0  0  0  0  0  0  0  0  0
    2.8187    1.4003    4.8708 H   0  0  0  0  0  0  0  0  0  0  0  0
    2.6877    3.8182    4.3441 H   0  0  0  0  0  0  0  0  0  0  0  0
    2.7183    4.5855    1.9861 H   0  0  0  0  0  0  0  0  0  0  0  0
    2.8719    2.9316    0.1428 H   0  0  0  0  0  0  0  0  0  0  0  0
    4.9789   -1.9521    1.0882 H   0  0  0  0  0  0  0  0  0  0  0  0
    7.4463   -2.0094    1.1418 H   0  0  0  0  0  0  0  0  0  0  0  0
    8.7621   -0.1410    0.1830 H   0  0  0  0  0  0  0  0  0  0  0  0
    7.6000    1.7959   -0.8425 H   0  0  0  0  0  0  0  0  0  0  0  0
    5.1352    1.8699   -0.9101 H   0  0  0  0  0  0  0  0  0  0  0  0
  1  2  1  0  0  0  0
  2 10  1  0  0  0  0
  2  4  1  0  0  0  0
  2  3  2  0  0  0  0
  4  5  2  0  0  0  0
  4  9  1  0  0  0  0
  5  6  1  0  0  0  0
  5 16  1  0  0  0  0
  6  7  2  0  0  0  0
  6 17  1  0  0  0  0
  7  8  1  0  0  0  0
  7 18  1  0  0  0  0
  8  9  2  0  0  0  0
  8 19  1  0  0  0  0
  9 20  1  0  0  0  0
 10 11  2  0  0  0  0
 10 15  1  0  0  0  0
 11 12  1  0  0  0  0
 11 21  1  0  0  0  0
 12 13  2  0  0  0  0
 12 22  1  0  0  0  0
 13 14  1  0  0  0  0
 13 23  1  0  0  0  0
 14 15  2  0  0  0  0
 14 24  1  0  0  0  0
 15 25  1  0  0  0  0
M  END
$$$$