495264 495263
 OpenBabel01211413193D

 20 19  0  0  0  0  0  0  0  0999 V2000
    1.9539   -0.1285   -0.4782 C   0  0  0  0  0  0  0  0  0  0  0  0
    3.3265    0.2568    0.0523 C   0  0  0  0  0  0  0  0  0  0  0  0
    3.2809    1.6020    0.6202 N   0  0  0  0  0  0  0  0  0  0  0  0
    4.5894    1.9968    1.1359 C   0  0  0  0  0  0  0  0  0  0  0  0
    4.5309    3.3844    1.7267 C   0  0  0  0  0  0  0  0  0  0  0  0
    4.7883    3.6174    3.0254 C   0  0  0  0  0  0  0  0  0  0  0  0
    4.2063    4.5071    0.7790 C   0  0  0  0  0  0  0  0  0  0  0  0
    1.9853   -1.1357   -0.9064 H   0  0  0  0  0  0  0  0  0  0  0  0
    1.6250    0.5609   -1.2629 H   0  0  0  0  0  0  0  0  0  0  0  0
    1.2036   -0.1252    0.3195 H   0  0  0  0  0  0  0  0  0  0  0  0
    4.0485    0.2161   -0.7713 H   0  0  0  0  0  0  0  0  0  0  0  0
    3.6341   -0.4719    0.8115 H   0  0  0  0  0  0  0  0  0  0  0  0
    2.6100    1.6267    1.3873 H   0  0  0  0  0  0  0  0  0  0  0  0
    5.3333    1.9933    0.3298 H   0  0  0  0  0  0  0  0  0  0  0  0
    4.9267    1.2758    1.8915 H   0  0  0  0  0  0  0  0  0  0  0  0
    5.0359    2.8121    3.7103 H   0  0  0  0  0  0  0  0  0  0  0  0
    4.7577    4.6210    3.4385 H   0  0  0  0  0  0  0  0  0  0  0  0
    3.2014    4.3873    0.3627 H   0  0  0  0  0  0  0  0  0  0  0  0
    4.9263    4.5275   -0.0453 H   0  0  0  0  0  0  0  0  0  0  0  0
    4.2430    5.4835    1.2740 H   0  0  0  0  0  0  0  0  0  0  0  0
  1  2  1  0  0  0  0
  1  8  1  0  0  0  0
  1  9  1  0  0  0  0
  1 10  1  0  0  0  0
  2  3  1  0  0  0  0
  2 11  1  0  0  0  0
  2 12  1  0  0  0  0
  3  4  1  0  0  0  0
  3 13  1  0  0  0  0
  4  5  1  0  0  0  0
  4 14  1  0  0  0  0
  4 15  1  0  0  0  0
  5  7  1  0  0  0  0
  5  6  2  0  0  0  0
  6 16  1  0  0  0  0
  6 17  1  0  0  0  0
  7 18  1  0  0  0  0
  7 19  1  0  0  0  0
  7 20  1  0  0  0  0
M  END
$$$$