5867262 5867261
 OpenBabel01211413563D

 23 23  0  0  0  0  0  0  0  0999 V2000
    4.2082    0.9326   -4.9934 C   0  0  0  0  0  0  0  0  0  0  0  0
    3.8763    1.6292   -3.6707 C   0  0  0  0  0  0  0  0  0  0  0  0
    3.2019    0.6691   -2.7027 C   0  0  0  0  0  0  0  0  0  0  0  0
    3.8084   -0.0177   -1.7087 C   0  0  0  0  0  0  0  0  0  0  0  0
    3.1665   -0.8607   -0.6970 C   0  0  0  0  0  0  0  0  0  0  0  0
    1.9198   -1.3794   -0.6399 C   0  0  0  0  0  0  0  0  0  0  0  0
    0.8137   -1.2348   -1.6645 C   0  0  0  0  0  0  0  0  0  0  0  0
   -0.3531   -1.5511   -1.4557 O   0  0  0  0  0  0  0  0  0  0  0  0
    1.2374   -0.6955   -2.9845 C   0  0  0  0  0  0  0  0  0  0  0  0
    1.7509    0.5396   -2.8345 C   0  0  0  0  0  0  0  0  0  0  0  0
    1.9265   -1.8978   -4.0312 Cl  0  0  0  0  0  0  0  0  0  0  0  0
    1.4892   -2.3154    0.7653 Cl  0  0  0  0  0  0  0  0  0  0  0  0
    5.1345    2.3044   -3.1102 C   0  0  0  0  0  0  0  0  0  0  0  0
    4.6838    1.6307   -5.6910 H   0  0  0  0  0  0  0  0  0  0  0  0
    3.3040    0.5516   -5.4795 H   0  0  0  0  0  0  0  0  0  0  0  0
    4.8925    0.0904   -4.8413 H   0  0  0  0  0  0  0  0  0  0  0  0
    3.1696    2.4426   -3.8881 H   0  0  0  0  0  0  0  0  0  0  0  0
    4.8871    0.0687   -1.5819 H   0  0  0  0  0  0  0  0  0  0  0  0
    3.8363   -1.0774    0.1375 H   0  0  0  0  0  0  0  0  0  0  0  0
    1.2492    1.2362   -2.1561 H   0  0  0  0  0  0  0  0  0  0  0  0
    5.9552    1.5920   -2.9740 H   0  0  0  0  0  0  0  0  0  0  0  0
    4.9289    2.7837   -2.1470 H   0  0  0  0  0  0  0  0  0  0  0  0
    5.4874    3.0821   -3.7969 H   0  0  0  0  0  0  0  0  0  0  0  0
  1  2  1  0  0  0  0
  1 14  1  0  0  0  0
  1 15  1  0  0  0  0
  1 16  1  0  0  0  0
  2 13  1  0  0  0  0
  2  3  1  0  0  0  0
  2 17  1  0  0  0  0
  3  4  2  0  0  0  0
  3 10  1  0  0  0  0
  4  5  1  0  0  0  0
  4 18  1  0  0  0  0
  5  6  2  0  0  0  0
  5 19  1  0  0  0  0
  6 12  1  0  0  0  0
  6  7  1  0  0  0  0
  7  9  1  0  0  0  0
  7  8  2  0  0  0  0
  9 11  1  0  0  0  0
  9 10  2  0  0  0  0
 10 20  1  0  0  0  0
 13 21  1  0  0  0  0
 13 22  1  0  0  0  0
 13 23  1  0  0  0  0
M  END
$$$$