1198172 1198171
 OpenBabel01211413403D

 35 38  0  0  1  0  0  0  0  0999 V2000
    1.7652    0.0264    0.5044 O   0  0  0  0  0  0  0  0  0  0  0  0
    2.3954    1.0697    0.6839 C   0  0  0  0  0  0  0  0  0  0  0  0
    2.6412    1.6237    2.0887 C   0  0  3  0  0  0  0  0  0  0  0  0
    2.7895    3.1509    2.1816 C   0  0  0  0  0  0  0  0  0  0  0  0
    2.9943    3.5589    3.5822 N   0  0  3  0  0  0  0  0  0  0  0  0
    1.8417    3.1669    4.3903 C   0  0  0  0  0  0  0  0  0  0  0  0
    1.6672    1.7183    4.3683 N   0  0  3  0  0  0  0  0  0  0  0  0
    1.4381    1.2549    2.9869 C   0  0  0  0  0  0  0  0  0  0  0  0
    2.8733    1.0915    4.9060 C   0  0  0  0  0  0  0  0  0  0  0  0
    4.0446    1.4530    4.1070 N   0  0  3  0  0  0  0  0  0  0  0  0
    3.8754    0.9718    2.7238 C   0  0  0  0  0  0  0  0  0  0  0  0
    4.1867    2.9081    4.1269 C   0  0  0  0  0  0  0  0  0  0  0  0
    2.9059    1.7555   -0.5335 C   0  0  0  0  0  0  0  0  0  0  0  0
    2.0550    1.8140   -1.6475 C   0  0  0  0  0  0  0  0  0  0  0  0
    2.4747    2.4353   -2.8268 C   0  0  0  0  0  0  0  0  0  0  0  0
    3.7496    2.9910   -2.8970 C   0  0  0  0  0  0  0  0  0  0  0  0
    4.6121    2.9154   -1.8037 C   0  0  0  0  0  0  0  0  0  0  0  0
    4.1965    2.2859   -0.6249 C   0  0  0  0  0  0  0  0  0  0  0  0
    4.2677    3.7650   -4.3419 Cl  0  0  0  0  0  0  0  0  0  0  0  0
    1.9069    3.6566    1.7669 H   0  0  0  0  0  0  0  0  0  0  0  0
    3.6372    3.5258    1.6007 H   0  0  0  0  0  0  0  0  0  0  0  0
    0.9343    3.6662    4.0247 H   0  0  0  0  0  0  0  0  0  0  0  0
    1.9585    3.5247    5.4226 H   0  0  0  0  0  0  0  0  0  0  0  0
    1.2625    0.1706    2.9978 H   0  0  0  0  0  0  0  0  0  0  0  0
    0.5106    1.6956    2.5957 H   0  0  0  0  0  0  0  0  0  0  0  0
    3.0213    1.3833    5.9544 H   0  0  0  0  0  0  0  0  0  0  0  0
    2.7545    0.0003    4.9357 H   0  0  0  0  0  0  0  0  0  0  0  0
    4.7860    1.1892    2.1545 H   0  0  0  0  0  0  0  0  0  0  0  0
    3.7895   -0.1234    2.7181 H   0  0  0  0  0  0  0  0  0  0  0  0
    5.0762    3.2089    3.5568 H   0  0  0  0  0  0  0  0  0  0  0  0
    4.3804    3.2593    5.1493 H   0  0  0  0  0  0  0  0  0  0  0  0
    1.0612    1.3692   -1.6023 H   0  0  0  0  0  0  0  0  0  0  0  0
    1.8065    2.4756   -3.6825 H   0  0  0  0  0  0  0  0  0  0  0  0
    5.6134    3.3368   -1.8664 H   0  0  0  0  0  0  0  0  0  0  0  0
    4.9033    2.2147    0.1947 H   0  0  0  0  0  0  0  0  0  0  0  0
  1  2  2  0  0  0  0
  2 13  1  0  0  0  0
  2  3  1  0  0  0  0
  3  4  1  0  0  0  0
  3 11  1  0  0  0  0
  3  8  1  0  0  0  0
  4  5  1  0  0  0  0
  4 20  1  0  0  0  0
  4 21  1  0  0  0  0
  5 12  1  0  0  0  0
  5  6  1  0  0  0  0
  6  7  1  0  0  0  0
  6 22  1  0  0  0  0
  6 23  1  0  0  0  0
  7  8  1  0  0  0  0
  7  9  1  0  0  0  0
  8 24  1  0  0  0  0
  8 25  1  0  0  0  0
  9 10  1  0  0  0  0
  9 26  1  0  0  0  0
  9 27  1  0  0  0  0
 10 11  1  0  0  0  0
 10 12  1  0  0  0  0
 11 28  1  0  0  0  0
 11 29  1  0  0  0  0
 12 30  1  0  0  0  0
 12 31  1  0  0  0  0
 13 14  2  0  0  0  0
 13 18  1  0  0  0  0
 14 15  1  0  0  0  0
 14 32  1  0  0  0  0
 15 16  2  0  0  0  0
 15 33  1  0  0  0  0
 16 17  1  0  0  0  0
 16 19  1  0  0  0  0
 17 18  2  0  0  0  0
 17 34  1  0  0  0  0
 18 35  1  0  0  0  0
M  END
$$$$