24177566 24177565
 OpenBabel01211414023D

 25 25  0  0  0  0  0  0  0  0999 V2000
    3.4304    0.2242    3.7743 C   0  0  0  0  0  0  0  0  0  0  0  0
    2.9774    0.8248    2.4722 C   0  0  0  0  0  0  0  0  0  0  0  0
    2.2064    1.9253    2.4395 C   0  0  0  0  0  0  0  0  0  0  0  0
    3.3960    0.1069    1.2065 C   0  0  0  0  0  0  0  0  0  0  0  0
    4.8927    0.0263    1.0044 C   0  0  0  0  0  0  0  0  0  0  0  0
    5.6658    1.1927    0.8702 C   0  0  0  0  0  0  0  0  0  0  0  0
    7.0537    1.1252    0.6705 C   0  0  0  0  0  0  0  0  0  0  0  0
    7.8544    2.3867    0.5422 C   0  0  0  0  0  0  0  0  0  0  0  0
    7.6695   -0.1277    0.5974 C   0  0  0  0  0  0  0  0  0  0  0  0
    6.9050   -1.2822    0.7240 C   0  0  0  0  0  0  0  0  0  0  0  0
    5.5302   -1.2179    0.9257 C   0  0  0  0  0  0  0  0  0  0  0  0
    7.5029   -2.4790    0.6488 F   0  0  0  0  0  0  0  0  0  0  0  0
    3.1398   -0.8298    3.8294 H   0  0  0  0  0  0  0  0  0  0  0  0
    2.9864    0.7340    4.6362 H   0  0  0  0  0  0  0  0  0  0  0  0
    4.5184    0.2927    3.8752 H   0  0  0  0  0  0  0  0  0  0  0  0
    1.8953    2.4288    3.3500 H   0  0  0  0  0  0  0  0  0  0  0  0
    1.8626    2.3527    1.5019 H   0  0  0  0  0  0  0  0  0  0  0  0
    2.9646    0.5899    0.3195 H   0  0  0  0  0  0  0  0  0  0  0  0
    2.9657   -0.9030    1.2291 H   0  0  0  0  0  0  0  0  0  0  0  0
    5.1799    2.1662    0.9280 H   0  0  0  0  0  0  0  0  0  0  0  0
    8.9162    2.1737    0.3788 H   0  0  0  0  0  0  0  0  0  0  0  0
    7.7684    2.9823    1.4569 H   0  0  0  0  0  0  0  0  0  0  0  0
    7.4963    2.9767   -0.3075 H   0  0  0  0  0  0  0  0  0  0  0  0
    8.7398   -0.2217    0.4419 H   0  0  0  0  0  0  0  0  0  0  0  0
    4.9715   -2.1441    1.0184 H   0  0  0  0  0  0  0  0  0  0  0  0
  1  2  1  0  0  0  0
  1 13  1  0  0  0  0
  1 14  1  0  0  0  0
  1 15  1  0  0  0  0
  2  4  1  0  0  0  0
  2  3  2  0  0  0  0
  3 16  1  0  0  0  0
  3 17  1  0  0  0  0
  4  5  1  0  0  0  0
  4 18  1  0  0  0  0
  4 19  1  0  0  0  0
  5 11  1  0  0  0  0
  5  6  2  0  0  0  0
  6  7  1  0  0  0  0
  6 20  1  0  0  0  0
  7  9  2  0  0  0  0
  7  8  1  0  0  0  0
  8 21  1  0  0  0  0
  8 22  1  0  0  0  0
  8 23  1  0  0  0  0
  9 10  1  0  0  0  0
  9 24  1  0  0  0  0
 10 11  2  0  0  0  0
 10 12  1  0  0  0  0
 11 25  1  0  0  0  0
M  END
$$$$