492553 492552
 OpenBabel01211413193D

 23 23  0  0  1  0  0  0  0  0999 V2000
    1.0907    0.0376    0.0869 C   0  0  0  0  0  0  0  0  0  0  0  0
    2.9700   -0.0026    0.0811 Si  0  0  0  0  0  0  0  0  0  0  0  0
    3.6088    0.7753   -1.5476 C   0  0  3  0  0  0  0  0  0  0  0  0
    5.1164    0.8327   -1.6586 C   0  0  0  0  0  0  0  0  0  0  0  0
    5.5136    2.1008   -1.8519 C   0  0  0  0  0  0  0  0  0  0  0  0
    4.3609    2.9635   -1.8906 C   0  0  0  0  0  0  0  0  0  0  0  0
    3.2488    2.2343   -1.7217 C   0  0  0  0  0  0  0  0  0  0  0  0
    3.6215    0.9471    1.5621 C   0  0  0  0  0  0  0  0  0  0  0  0
    3.5464   -1.7891    0.1780 C   0  0  0  0  0  0  0  0  0  0  0  0
    0.6994   -0.4351    0.9925 H   0  0  0  0  0  0  0  0  0  0  0  0
    0.6920   -0.4978   -0.7798 H   0  0  0  0  0  0  0  0  0  0  0  0
    0.7248    1.0679    0.0530 H   0  0  0  0  0  0  0  0  0  0  0  0
    3.2031    0.1966   -2.3863 H   0  0  0  0  0  0  0  0  0  0  0  0
    5.7755   -0.0228   -1.6107 H   0  0  0  0  0  0  0  0  0  0  0  0
    6.5305    2.4402   -1.9767 H   0  0  0  0  0  0  0  0  0  0  0  0
    4.4077    4.0307   -2.0480 H   0  0  0  0  0  0  0  0  0  0  0  0
    2.2417    2.6277   -1.7300 H   0  0  0  0  0  0  0  0  0  0  0  0
    3.2579    0.5027    2.4934 H   0  0  0  0  0  0  0  0  0  0  0  0
    3.2921    1.9899    1.5308 H   0  0  0  0  0  0  0  0  0  0  0  0
    4.7152    0.9334    1.5822 H   0  0  0  0  0  0  0  0  0  0  0  0
    3.1618   -2.2681    1.0833 H   0  0  0  0  0  0  0  0  0  0  0  0
    4.6387   -1.8434    0.1996 H   0  0  0  0  0  0  0  0  0  0  0  0
    3.1908   -2.3554   -0.6879 H   0  0  0  0  0  0  0  0  0  0  0  0
  1  2  1  0  0  0  0
  1 10  1  0  0  0  0
  1 11  1  0  0  0  0
  1 12  1  0  0  0  0
  2  9  1  0  0  0  0
  2  8  1  0  0  0  0
  2  3  1  0  0  0  0
  3  4  1  0  0  0  0
  3  7  1  0  0  0  0
  3 13  1  0  0  0  0
  4  5  2  0  0  0  0
  4 14  1  0  0  0  0
  5  6  1  0  0  0  0
  5 15  1  0  0  0  0
  6  7  2  0  0  0  0
  6 16  1  0  0  0  0
  7 17  1  0  0  0  0
  8 18  1  0  0  0  0
  8 19  1  0  0  0  0
  8 20  1  0  0  0  0
  9 21  1  0  0  0  0
  9 22  1  0  0  0  0
  9 23  1  0  0  0  0
M  END
$$$$