596185 596184
 OpenBabel01211413273D

 17 17  0  0  0  0  0  0  0  0999 V2000
    1.0069    0.0204    0.1498 C   0  0  0  0  0  0  0  0  0  0  0  0
    2.5009    0.0928    0.0326 C   0  0  0  0  0  0  0  0  0  0  0  0
    3.1578    1.2677   -0.0322 C   0  0  0  0  0  0  0  0  0  0  0  0
    4.6517    1.3857   -0.1548 C   0  0  0  0  0  0  0  0  0  0  0  0
    5.3565    0.0618   -0.2178 C   0  0  0  0  0  0  0  0  0  0  0  0
    4.7149   -1.1151   -0.1533 C   0  0  0  0  0  0  0  0  0  0  0  0
    3.2230   -1.2352   -0.0105 C   0  0  0  0  0  0  0  0  0  0  0  0
    0.5456    1.0134    0.1626 H   0  0  0  0  0  0  0  0  0  0  0  0
    0.7231   -0.4922    1.0746 H   0  0  0  0  0  0  0  0  0  0  0  0
    0.5862   -0.5313   -0.6973 H   0  0  0  0  0  0  0  0  0  0  0  0
    2.6069    2.2038    0.0024 H   0  0  0  0  0  0  0  0  0  0  0  0
    5.0339    1.9509    0.7027 H   0  0  0  0  0  0  0  0  0  0  0  0
    4.8879    1.9565   -1.0596 H   0  0  0  0  0  0  0  0  0  0  0  0
    6.4380    0.0812   -0.3211 H   0  0  0  0  0  0  0  0  0  0  0  0
    5.2816   -2.0405   -0.2043 H   0  0  0  0  0  0  0  0  0  0  0  0
    2.8420   -1.8238   -0.8536 H   0  0  0  0  0  0  0  0  0  0  0  0
    3.0067   -1.7917    0.9090 H   0  0  0  0  0  0  0  0  0  0  0  0
  1  2  1  0  0  0  0
  1  8  1  0  0  0  0
  1  9  1  0  0  0  0
  1 10  1  0  0  0  0
  2  3  2  0  0  0  0
  2  7  1  0  0  0  0
  3  4  1  0  0  0  0
  3 11  1  0  0  0  0
  4  5  1  0  0  0  0
  4 12  1  0  0  0  0
  4 13  1  0  0  0  0
  5  6  2  0  0  0  0
  5 14  1  0  0  0  0
  6  7  1  0  0  0  0
  6 15  1  0  0  0  0
  7 16  1  0  0  0  0
  7 17  1  0  0  0  0
M  END
$$$$