602020 602019
 OpenBabel01211413273D

 50 52  0  0  0  0  0  0  0  0999 V2000
    4.8361    1.7599    2.5439 O   0  0  0  0  0  0  0  0  0  0  0  0
    4.1238    0.8049    2.2665 C   0  0  0  0  0  0  0  0  0  0  0  0
    3.0261    0.3805    3.0069 N   0  0  0  0  0  0  0  0  0  0  0  0
    2.5227    0.9146    4.2092 C   0  0  0  0  0  0  0  0  0  0  0  0
    3.0751    2.0054    4.8781 C   0  0  0  0  0  0  0  0  0  0  0  0
    2.5100    2.4635    6.0725 C   0  0  0  0  0  0  0  0  0  0  0  0
    1.3879    1.8340    6.6103 C   0  0  0  0  0  0  0  0  0  0  0  0
    0.8168    0.7365    5.9563 C   0  0  0  0  0  0  0  0  0  0  0  0
    1.3937    0.2873    4.7552 C   0  0  0  0  0  0  0  0  0  0  0  0
   -0.3918    0.0288    6.5137 C   0  0  0  0  0  0  0  0  0  0  0  0
   -1.4396    0.0276    5.6429 F   0  0  0  0  0  0  0  0  0  0  0  0
   -0.1417   -1.2809    6.7931 F   0  0  0  0  0  0  0  0  0  0  0  0
   -0.8655    0.5736    7.6680 F   0  0  0  0  0  0  0  0  0  0  0  0
    4.2918   -0.0231    1.1656 N   0  0  0  0  0  0  0  0  0  0  0  0
    5.2848    0.0316    0.1666 C   0  0  0  0  0  0  0  0  0  0  0  0
    6.2924    0.9892    0.1020 C   0  0  0  0  0  0  0  0  0  0  0  0
    7.2299    0.9464   -0.9338 C   0  0  0  0  0  0  0  0  0  0  0  0
    7.1712   -0.0594   -1.9028 C   0  0  0  0  0  0  0  0  0  0  0  0
    6.1768   -1.0392   -1.8432 C   0  0  0  0  0  0  0  0  0  0  0  0
    5.2317   -0.9694   -0.8161 C   0  0  0  0  0  0  0  0  0  0  0  0
    6.1830   -2.0503   -2.8330 N   0  0  0  0  0  0  0  0  0  0  0  0
    5.4190   -3.2116   -2.8369 C   0  0  0  0  0  0  0  0  0  0  0  0
    4.6528   -3.5408   -1.9404 O   0  0  0  0  0  0  0  0  0  0  0  0
    5.6478   -3.9510   -3.9887 N   0  0  0  0  0  0  0  0  0  0  0  0
    5.1048   -5.2148   -4.3144 C   0  0  0  0  0  0  0  0  0  0  0  0
    4.2712   -5.9503   -3.4694 C   0  0  0  0  0  0  0  0  0  0  0  0
    3.7767   -7.1978   -3.8598 C   0  0  0  0  0  0  0  0  0  0  0  0
    4.1154   -7.7299   -5.1006 C   0  0  0  0  0  0  0  0  0  0  0  0
    4.9540   -7.0164   -5.9653 C   0  0  0  0  0  0  0  0  0  0  0  0
    5.4413   -5.7581   -5.5616 C   0  0  0  0  0  0  0  0  0  0  0  0
    5.3415   -7.5758   -7.3107 C   0  0  0  0  0  0  0  0  0  0  0  0
    4.9572   -6.7683   -8.3379 F   0  0  0  0  0  0  0  0  0  0  0  0
    6.6892   -7.7252   -7.4400 F   0  0  0  0  0  0  0  0  0  0  0  0
    4.8028   -8.7984   -7.5737 F   0  0  0  0  0  0  0  0  0  0  0  0
    2.5216   -0.4095    2.6378 H   0  0  0  0  0  0  0  0  0  0  0  0
    3.9497    2.5243    4.4976 H   0  0  0  0  0  0  0  0  0  0  0  0
    2.9530    3.3160    6.5828 H   0  0  0  0  0  0  0  0  0  0  0  0
    0.9640    2.2049    7.5422 H   0  0  0  0  0  0  0  0  0  0  0  0
    0.9453   -0.5681    4.2517 H   0  0  0  0  0  0  0  0  0  0  0  0
    3.6446   -0.7909    1.0775 H   0  0  0  0  0  0  0  0  0  0  0  0
    6.3758    1.7806    0.8405 H   0  0  0  0  0  0  0  0  0  0  0  0
    8.0135    1.6993   -0.9775 H   0  0  0  0  0  0  0  0  0  0  0  0
    7.9215   -0.0679   -2.6884 H   0  0  0  0  0  0  0  0  0  0  0  0
    4.4291   -1.6964   -0.7638 H   0  0  0  0  0  0  0  0  0  0  0  0
    6.9145   -1.9848   -3.5234 H   0  0  0  0  0  0  0  0  0  0  0  0
    6.2127   -3.5133   -4.6993 H   0  0  0  0  0  0  0  0  0  0  0  0
    3.9810   -5.5857   -2.4892 H   0  0  0  0  0  0  0  0  0  0  0  0
    3.1266   -7.7521   -3.1863 H   0  0  0  0  0  0  0  0  0  0  0  0
    3.7229   -8.7046   -5.3868 H   0  0  0  0  0  0  0  0  0  0  0  0
    6.0933   -5.2107   -6.2404 H   0  0  0  0  0  0  0  0  0  0  0  0
  1  2  2  0  0  0  0
  2 14  1  0  0  0  0
  2  3  1  0  0  0  0
  3  4  1  0  0  0  0
  3 35  1  0  0  0  0
  4  5  2  0  0  0  0
  4  9  1  0  0  0  0
  5  6  1  0  0  0  0
  5 36  1  0  0  0  0
  6  7  2  0  0  0  0
  6 37  1  0  0  0  0
  7  8  1  0  0  0  0
  7 38  1  0  0  0  0
  8  9  2  0  0  0  0
  8 10  1  0  0  0  0
  9 39  1  0  0  0  0
 10 13  1  0  0  0  0
 10 12  1  0  0  0  0
 10 11  1  0  0  0  0
 14 15  1  0  0  0  0
 14 40  1  0  0  0  0
 15 16  2  0  0  0  0
 15 20  1  0  0  0  0
 16 17  1  0  0  0  0
 16 41  1  0  0  0  0
 17 18  2  0  0  0  0
 17 42  1  0  0  0  0
 18 19  1  0  0  0  0
 18 43  1  0  0  0  0
 19 20  2  0  0  0  0
 19 21  1  0  0  0  0
 20 44  1  0  0  0  0
 21 22  1  0  0  0  0
 21 45  1  0  0  0  0
 22 24  1  0  0  0  0
 22 23  2  0  0  0  0
 24 25  1  0  0  0  0
 24 46  1  0  0  0  0
 25 26  2  0  0  0  0
 25 30  1  0  0  0  0
 26 27  1  0  0  0  0
 26 47  1  0  0  0  0
 27 28  2  0  0  0  0
 27 48  1  0  0  0  0
 28 29  1  0  0  0  0
 28 49  1  0  0  0  0
 29 30  2  0  0  0  0
 29 31  1  0  0  0  0
 30 50  1  0  0  0  0
 31 34  1  0  0  0  0
 31 33  1  0  0  0  0
 31 32  1  0  0  0  0
M  END
$$$$