531548 531547
 OpenBabel01211413233D

 15 16  0  0  0  0  0  0  0  0999 V2000
    0.7189   -0.9513   -0.1072 C   0  0  0  0  0  0  0  0  0  0  0  0
    1.1316    0.3313   -0.1689 C   0  0  0  0  0  0  0  0  0  0  0  0
    0.0040    1.2518    0.0001 C   0  0  0  0  0  0  0  0  0  0  0  0
   -1.1256    0.3342    0.1694 C   0  0  0  0  0  0  0  0  0  0  0  0
   -0.7177   -0.9475    0.1081 C   0  0  0  0  0  0  0  0  0  0  0  0
    0.1178    2.5363    0.7468 C   0  0  0  0  0  0  0  0  0  0  0  0
   -0.1065    2.5361   -0.7474 C   0  0  0  0  0  0  0  0  0  0  0  0
    1.3288   -1.8353   -0.1986 H   0  0  0  0  0  0  0  0  0  0  0  0
    2.1544    0.6457   -0.3222 H   0  0  0  0  0  0  0  0  0  0  0  0
   -2.1469    0.6519    0.3225 H   0  0  0  0  0  0  0  0  0  0  0  0
   -1.3301   -1.8293    0.1999 H   0  0  0  0  0  0  0  0  0  0  0  0
    1.0917    2.8410    1.1122 H   0  0  0  0  0  0  0  0  0  0  0  0
   -0.7053    2.8430    1.3816 H   0  0  0  0  0  0  0  0  0  0  0  0
   -1.0792    2.8428   -1.1128 H   0  0  0  0  0  0  0  0  0  0  0  0
    0.7176    2.8407   -1.3824 H   0  0  0  0  0  0  0  0  0  0  0  0
  1  2  2  0  0  0  0
  1  5  1  0  0  0  0
  1  8  1  0  0  0  0
  2  3  1  0  0  0  0
  2  9  1  0  0  0  0
  3  4  1  0  0  0  0
  3  7  1  0  0  0  0
  3  6  1  0  0  0  0
  4  5  2  0  0  0  0
  4 10  1  0  0  0  0
  5 11  1  0  0  0  0
  6  7  1  0  0  0  0
  6 12  1  0  0  0  0
  6 13  1  0  0  0  0
  7 14  1  0  0  0  0
  7 15  1  0  0  0  0
M  END
$$$$