7526966 7526965
 OpenBabel01211413573D

 16 15  0  0  0  0  0  0  0  0999 V2000
    2.3213   -0.7535    3.0492 C   0  0  0  0  0  0  0  0  0  0  0  0
    2.7909   -0.6037    1.8025 C   0  0  0  0  0  0  0  0  0  0  0  0
    1.9977   -0.2427    0.5804 C   0  0  0  0  0  0  0  0  0  0  0  0
    0.5951   -0.2226    0.8787 O   0  0  0  0  0  0  0  0  0  0  0  0
   -0.3292    0.0265   -0.0894 C   0  0  0  0  0  0  0  0  0  0  0  0
   -0.0119    0.3659   -1.2991 N   0  0  0  0  0  0  0  0  0  0  0  0
   -1.7726   -0.1625    0.4213 C   0  0  0  0  0  0  0  0  0  0  0  0
   -2.0139    0.8432    1.8790 Cl  0  0  0  0  0  0  0  0  0  0  0  0
   -2.9670    0.3125   -0.8146 Cl  0  0  0  0  0  0  0  0  0  0  0  0
   -1.9980   -1.8887    0.8255 Cl  0  0  0  0  0  0  0  0  0  0  0  0
    2.9865   -1.0184    3.8655 H   0  0  0  0  0  0  0  0  0  0  0  0
    1.2725   -0.6121    3.2917 H   0  0  0  0  0  0  0  0  0  0  0  0
    3.8557   -0.7545    1.6361 H   0  0  0  0  0  0  0  0  0  0  0  0
    2.1876   -0.9881   -0.1996 H   0  0  0  0  0  0  0  0  0  0  0  0
    2.3130    0.7476    0.2349 H   0  0  0  0  0  0  0  0  0  0  0  0
    0.9934    0.4448   -1.4384 H   0  0  0  0  0  0  0  0  0  0  0  0
  1  2  2  0  0  0  0
  1 11  1  0  0  0  0
  1 12  1  0  0  0  0
  2  3  1  0  0  0  0
  2 13  1  0  0  0  0
  3  4  1  0  0  0  0
  3 14  1  0  0  0  0
  3 15  1  0  0  0  0
  4  5  1  0  0  0  0
  5  7  1  0  0  0  0
  5  6  2  0  0  0  0
  6 16  1  0  0  0  0
  7 10  1  0  0  0  0
  7  9  1  0  0  0  0
  7  8  1  0  0  0  0
M  END
$$$$