545031 545030
 OpenBabel01211413243D

 26 26  0  0  0  0  0  0  0  0999 V2000
   -0.1017   -3.1056    1.1306 C   0  0  0  0  0  0  0  0  0  0  0  0
    1.0407   -2.2109    0.8683 C   0  0  0  0  0  0  0  0  0  0  0  0
    1.1676   -0.8463    0.7786 C   0  0  0  0  0  0  0  0  0  0  0  0
    2.5364   -0.6003    0.5261 C   0  0  0  0  0  0  0  0  0  0  0  0
    3.1886   -1.8260    0.4558 C   0  0  0  0  0  0  0  0  0  0  0  0
    2.2467   -2.8086    0.6736 O   0  0  0  0  0  0  0  0  0  0  0  0
    4.5765   -2.0670    0.2703 C   0  0  0  0  0  0  0  0  0  0  0  0
    5.0936   -3.1680   -0.3031 C   0  0  0  0  0  0  0  0  0  0  0  0
    4.2556   -4.2250   -0.9280 C   0  0  0  0  0  0  0  0  0  0  0  0
    3.5782   -3.9819   -1.9247 O   0  0  0  0  0  0  0  0  0  0  0  0
    4.3551   -5.6164   -0.3629 C   0  0  0  0  0  0  0  0  0  0  0  0
    6.5846   -3.2622   -0.3432 C   0  0  0  0  0  0  0  0  0  0  0  0
    7.2840   -2.6399    0.4569 O   0  0  0  0  0  0  0  0  0  0  0  0
    7.2128   -4.1511   -1.3847 C   0  0  0  0  0  0  0  0  0  0  0  0
   -0.9767   -2.5366    1.4629 H   0  0  0  0  0  0  0  0  0  0  0  0
    0.1460   -3.8291    1.9137 H   0  0  0  0  0  0  0  0  0  0  0  0
   -0.3755   -3.6543    0.2244 H   0  0  0  0  0  0  0  0  0  0  0  0
    0.3760   -0.1187    0.8903 H   0  0  0  0  0  0  0  0  0  0  0  0
    3.0064    0.3665    0.4054 H   0  0  0  0  0  0  0  0  0  0  0  0
    5.2450   -1.2931    0.6424 H   0  0  0  0  0  0  0  0  0  0  0  0
    4.9721   -5.6351    0.5416 H   0  0  0  0  0  0  0  0  0  0  0  0
    4.8133   -6.2735   -1.1089 H   0  0  0  0  0  0  0  0  0  0  0  0
    3.3573   -5.9805   -0.1088 H   0  0  0  0  0  0  0  0  0  0  0  0
    7.1416   -5.1971   -1.0770 H   0  0  0  0  0  0  0  0  0  0  0  0
    8.2700   -3.8889   -1.4896 H   0  0  0  0  0  0  0  0  0  0  0  0
    6.7340   -4.0024   -2.3561 H   0  0  0  0  0  0  0  0  0  0  0  0
  1  2  1  0  0  0  0
  1 15  1  0  0  0  0
  1 16  1  0  0  0  0
  1 17  1  0  0  0  0
  2  3  2  0  0  0  0
  2  6  1  0  0  0  0
  3  4  1  0  0  0  0
  3 18  1  0  0  0  0
  4  5  2  0  0  0  0
  4 19  1  0  0  0  0
  5  6  1  0  0  0  0
  5  7  1  0  0  0  0
  7  8  2  0  0  0  0
  7 20  1  0  0  0  0
  8 12  1  0  0  0  0
  8  9  1  0  0  0  0
  9 11  1  0  0  0  0
  9 10  2  0  0  0  0
 11 21  1  0  0  0  0
 11 22  1  0  0  0  0
 11 23  1  0  0  0  0
 12 14  1  0  0  0  0
 12 13  2  0  0  0  0
 14 24  1  0  0  0  0
 14 25  1  0  0  0  0
 14 26  1  0  0  0  0
M  END
$$$$