5860854 5860853
 OpenBabel01211413553D

 30 30  0  0  0  0  0  0  0  0999 V2000
    5.8505   -0.8953   -1.5364 O   0  0  0  0  0  0  0  0  0  0  0  0
    5.3456   -0.1062   -0.5656 C   0  0  0  0  0  0  0  0  0  0  0  0
    5.8932    0.1039    0.5018 O   0  0  0  0  0  0  0  0  0  0  0  0
    4.0997    0.5678   -0.9911 C   0  0  0  0  0  0  0  0  0  0  0  0
    4.1510    1.9678   -1.0518 C   0  0  0  0  0  0  0  0  0  0  0  0
    3.0389    2.6914   -1.4755 C   0  0  0  0  0  0  0  0  0  0  0  0
    1.8726    2.0200   -1.8305 C   0  0  0  0  0  0  0  0  0  0  0  0
    1.8120    0.6261   -1.7536 C   0  0  0  0  0  0  0  0  0  0  0  0
    2.9216   -0.1288   -1.3289 C   0  0  0  0  0  0  0  0  0  0  0  0
    2.7692   -1.6314   -1.2160 C   0  0  0  0  0  0  0  0  0  0  0  0
    2.1825   -2.3095    0.4687 Si  0  0  0  0  0  0  0  0  0  0  0  0
    0.5224   -1.5653    0.9216 C   0  0  0  0  0  0  0  0  0  0  0  0
    1.9948   -4.1756    0.2993 C   0  0  0  0  0  0  0  0  0  0  0  0
    3.4335   -1.9379    1.8075 C   0  0  0  0  0  0  0  0  0  0  0  0
    5.3393   -0.8647   -2.3681 H   0  0  0  0  0  0  0  0  0  0  0  0
    5.0610    2.4942   -0.7683 H   0  0  0  0  0  0  0  0  0  0  0  0
    3.0814    3.7768   -1.5244 H   0  0  0  0  0  0  0  0  0  0  0  0
    1.0012    2.5833   -2.1575 H   0  0  0  0  0  0  0  0  0  0  0  0
    0.8788    0.1310   -2.0198 H   0  0  0  0  0  0  0  0  0  0  0  0
    3.7016   -2.1383   -1.4801 H   0  0  0  0  0  0  0  0  0  0  0  0
    2.0458   -1.9687   -1.9702 H   0  0  0  0  0  0  0  0  0  0  0  0
    0.6088   -0.4864    1.0805 H   0  0  0  0  0  0  0  0  0  0  0  0
    0.1391   -2.0145    1.8428 H   0  0  0  0  0  0  0  0  0  0  0  0
   -0.2095   -1.7383    0.1273 H   0  0  0  0  0  0  0  0  0  0  0  0
    1.6933   -4.6204    1.2520 H   0  0  0  0  0  0  0  0  0  0  0  0
    2.9416   -4.6289   -0.0092 H   0  0  0  0  0  0  0  0  0  0  0  0
    1.2364   -4.4182   -0.4509 H   0  0  0  0  0  0  0  0  0  0  0  0
    4.4166   -2.3380    1.5420 H   0  0  0  0  0  0  0  0  0  0  0  0
    3.1294   -2.3897    2.7564 H   0  0  0  0  0  0  0  0  0  0  0  0
    3.5312   -0.8598    1.9637 H   0  0  0  0  0  0  0  0  0  0  0  0
  1  2  1  0  0  0  0
  1 15  1  0  0  0  0
  2  4  1  0  0  0  0
  2  3  2  0  0  0  0
  4  5  2  0  0  0  0
  4  9  1  0  0  0  0
  5  6  1  0  0  0  0
  5 16  1  0  0  0  0
  6  7  2  0  0  0  0
  6 17  1  0  0  0  0
  7  8  1  0  0  0  0
  7 18  1  0  0  0  0
  8  9  2  0  0  0  0
  8 19  1  0  0  0  0
  9 10  1  0  0  0  0
 10 11  1  0  0  0  0
 10 20  1  0  0  0  0
 10 21  1  0  0  0  0
 11 14  1  0  0  0  0
 11 13  1  0  0  0  0
 11 12  1  0  0  0  0
 12 22  1  0  0  0  0
 12 23  1  0  0  0  0
 12 24  1  0  0  0  0
 13 25  1  0  0  0  0
 13 26  1  0  0  0  0
 13 27  1  0  0  0  0
 14 28  1  0  0  0  0
 14 29  1  0  0  0  0
 14 30  1  0  0  0  0
M  END
$$$$