658691 658690
 OpenBabel01211413303D

 42 43  0  0  1  0  0  0  0  0999 V2000
    6.9661   -5.3605   -0.5346 C   0  0  0  0  0  0  0  0  0  0  0  0
    7.0209   -4.3017   -1.4795 O   0  0  0  0  0  0  0  0  0  0  0  0
    8.1396   -3.4370   -1.2480 C   0  0  0  0  0  0  0  0  0  0  0  0
    8.1820   -2.3819   -2.3504 C   0  0  0  0  0  0  0  0  0  0  0  0
    8.3818   -3.0781   -3.5963 O   0  0  0  0  0  0  0  0  0  0  0  0
    7.4522   -2.8755   -4.5584 C   0  0  0  0  0  0  0  0  0  0  0  0
    6.6420   -1.9618   -4.5858 O   0  0  0  0  0  0  0  0  0  0  0  0
    7.5308   -3.9696   -5.5630 C   0  0  0  0  0  0  0  0  0  0  0  0
    7.0013   -3.8261   -6.7964 C   0  0  0  0  0  0  0  0  0  0  0  0
    6.4596   -2.5516   -7.3788 C   0  0  0  0  0  0  0  0  0  0  0  0
    6.9513   -4.9297   -7.6239 N   0  0  0  0  0  0  0  0  0  0  0  0
    7.2075   -6.2045   -7.2183 C   0  0  0  0  0  0  0  0  0  0  0  0
    6.9795   -7.5062   -8.2231 S   0  0  0  0  0  0  0  0  0  0  0  0
    7.6033   -6.3675   -5.9316 N   0  0  0  0  0  0  0  0  0  0  0  0
    8.1439   -5.2789   -5.1240 C   0  0  3  0  0  0  0  0  0  0  0  0
    9.6740   -5.3526   -5.1529 C   0  0  0  0  0  0  0  0  0  0  0  0
   10.4821   -4.3537   -5.7194 C   0  0  0  0  0  0  0  0  0  0  0  0
   11.8759   -4.4694   -5.7241 C   0  0  0  0  0  0  0  0  0  0  0  0
   12.4987   -5.6012   -5.1919 C   0  0  0  0  0  0  0  0  0  0  0  0
   11.7075   -6.6001   -4.6192 C   0  0  0  0  0  0  0  0  0  0  0  0
   10.3149   -6.4762   -4.5978 C   0  0  0  0  0  0  0  0  0  0  0  0
   13.9941   -5.7132   -5.1855 C   0  0  0  0  0  0  0  0  0  0  0  0
    6.1137   -5.9983   -0.7837 H   0  0  0  0  0  0  0  0  0  0  0  0
    6.8255   -4.9639    0.4749 H   0  0  0  0  0  0  0  0  0  0  0  0
    7.8773   -5.9647   -0.5814 H   0  0  0  0  0  0  0  0  0  0  0  0
    9.0589   -4.0338   -1.2711 H   0  0  0  0  0  0  0  0  0  0  0  0
    8.0358   -2.9576   -0.2693 H   0  0  0  0  0  0  0  0  0  0  0  0
    9.0283   -1.7061   -2.2009 H   0  0  0  0  0  0  0  0  0  0  0  0
    7.2541   -1.8000   -2.3436 H   0  0  0  0  0  0  0  0  0  0  0  0
    7.0895   -1.6943   -7.1202 H   0  0  0  0  0  0  0  0  0  0  0  0
    5.4386   -2.3722   -7.0282 H   0  0  0  0  0  0  0  0  0  0  0  0
    6.4336   -2.5945   -8.4737 H   0  0  0  0  0  0  0  0  0  0  0  0
    6.5819   -4.8335   -8.5641 H   0  0  0  0  0  0  0  0  0  0  0  0
    7.8194   -7.3158   -5.6585 H   0  0  0  0  0  0  0  0  0  0  0  0
    7.8157   -5.5012   -4.1000 H   0  0  0  0  0  0  0  0  0  0  0  0
   10.0473   -3.4619   -6.1634 H   0  0  0  0  0  0  0  0  0  0  0  0
   12.4716   -3.6679   -6.1558 H   0  0  0  0  0  0  0  0  0  0  0  0
   12.1694   -7.4864   -4.1899 H   0  0  0  0  0  0  0  0  0  0  0  0
    9.7293   -7.2745   -4.1468 H   0  0  0  0  0  0  0  0  0  0  0  0
   14.3079   -6.7607   -5.2436 H   0  0  0  0  0  0  0  0  0  0  0  0
   14.3988   -5.2721   -4.2695 H   0  0  0  0  0  0  0  0  0  0  0  0
   14.4278   -5.1969   -6.0485 H   0  0  0  0  0  0  0  0  0  0  0  0
  1  2  1  0  0  0  0
  1 23  1  0  0  0  0
  1 24  1  0  0  0  0
  1 25  1  0  0  0  0
  2  3  1  0  0  0  0
  3  4  1  0  0  0  0
  3 26  1  0  0  0  0
  3 27  1  0  0  0  0
  4  5  1  0  0  0  0
  4 28  1  0  0  0  0
  4 29  1  0  0  0  0
  5  6  1  0  0  0  0
  6  8  1  0  0  0  0
  6  7  2  0  0  0  0
  8 15  1  0  0  0  0
  8  9  2  0  0  0  0
  9 11  1  0  0  0  0
  9 10  1  0  0  0  0
 10 30  1  0  0  0  0
 10 31  1  0  0  0  0
 10 32  1  0  0  0  0
 11 12  1  0  0  0  0
 11 33  1  0  0  0  0
 12 14  1  0  0  0  0
 12 13  2  0  0  0  0
 14 15  1  0  0  0  0
 14 34  1  0  0  0  0
 15 16  1  0  0  0  0
 15 35  1  0  0  0  0
 16 17  2  0  0  0  0
 16 21  1  0  0  0  0
 17 18  1  0  0  0  0
 17 36  1  0  0  0  0
 18 19  2  0  0  0  0
 18 37  1  0  0  0  0
 19 20  1  0  0  0  0
 19 22  1  0  0  0  0
 20 21  2  0  0  0  0
 20 38  1  0  0  0  0
 21 39  1  0  0  0  0
 22 40  1  0  0  0  0
 22 41  1  0  0  0  0
 22 42  1  0  0  0  0
M  END
$$$$