538300 538299
 OpenBabel01211413233D

 25 27  0  0  0  0  0  0  0  0999 V2000
    1.0355   -0.0148    0.0713 N   0  0  0  0  0  0  0  0  0  0  0  0
    2.3755    0.0696   -0.0206 N   0  0  0  0  0  0  0  0  0  0  0  0
    2.8640    0.8713   -0.9169 C   0  0  0  0  0  0  0  0  0  0  0  0
    4.3264    1.0709   -1.0531 C   0  0  0  0  0  0  0  0  0  0  0  0
    5.3554    0.4902   -0.3338 C   0  0  0  0  0  0  0  0  0  0  0  0
    6.6582    0.8657   -0.6626 C   0  0  0  0  0  0  0  0  0  0  0  0
    6.8969    1.7999   -1.6873 C   0  0  0  0  0  0  0  0  0  0  0  0
    5.8376    2.3758   -2.4012 C   0  0  0  0  0  0  0  0  0  0  0  0
    4.5432    2.0043   -2.0751 C   0  0  0  0  0  0  0  0  0  0  0  0
    3.2683    2.4130   -2.6211 C   0  0  0  0  0  0  0  0  0  0  0  0
    2.2284    1.7384   -1.9491 C   0  0  0  0  0  0  0  0  0  0  0  0
    0.9012    1.9264   -2.2968 C   0  0  0  0  0  0  0  0  0  0  0  0
    0.6125    2.8246   -3.3280 C   0  0  0  0  0  0  0  0  0  0  0  0
    1.6422    3.5094   -3.9937 C   0  0  0  0  0  0  0  0  0  0  0  0
    2.9805    3.3040   -3.6447 C   0  0  0  0  0  0  0  0  0  0  0  0
    0.7938   -0.8146    0.6614 H   0  0  0  0  0  0  0  0  0  0  0  0
    0.6714    0.7958    0.5781 H   0  0  0  0  0  0  0  0  0  0  0  0
    5.1503   -0.2278    0.4529 H   0  0  0  0  0  0  0  0  0  0  0  0
    7.4969    0.4324   -0.1223 H   0  0  0  0  0  0  0  0  0  0  0  0
    7.9211    2.0779   -1.9281 H   0  0  0  0  0  0  0  0  0  0  0  0
    6.0384    3.0938   -3.1894 H   0  0  0  0  0  0  0  0  0  0  0  0
    0.1003    1.3907   -1.8028 H   0  0  0  0  0  0  0  0  0  0  0  0
   -0.4216    2.9909   -3.6225 H   0  0  0  0  0  0  0  0  0  0  0  0
    1.3942    4.2021   -4.7952 H   0  0  0  0  0  0  0  0  0  0  0  0
    3.7682    3.8318   -4.1723 H   0  0  0  0  0  0  0  0  0  0  0  0
  1  2  1  0  0  0  0
  1 16  1  0  0  0  0
  1 17  1  0  0  0  0
  2  3  2  3  0  0  0
  3  4  1  0  0  0  0
  3 11  1  0  0  0  0
  4  9  1  0  0  0  0
  4  5  2  0  0  0  0
  5  6  1  0  0  0  0
  5 18  1  0  0  0  0
  6  7  2  0  0  0  0
  6 19  1  0  0  0  0
  7  8  1  0  0  0  0
  7 20  1  0  0  0  0
  8  9  2  0  0  0  0
  8 21  1  0  0  0  0
  9 10  1  0  0  0  0
 10 11  2  0  0  0  0
 10 15  1  0  0  0  0
 11 12  1  0  0  0  0
 12 13  2  0  0  0  0
 12 22  1  0  0  0  0
 13 14  1  0  0  0  0
 13 23  1  0  0  0  0
 14 15  2  0  0  0  0
 14 24  1  0  0  0  0
 15 25  1  0  0  0  0
M  END
$$$$