617002 617001
 OpenBabel01211413293D

 39 42  0  0  1  0  0  0  0  0999 V2000
   -1.5285   -1.2411   -0.2659 C   0  0  0  0  0  0  0  0  0  0  0  0
   -0.9090   -0.9581    0.9541 C   0  0  0  0  0  0  0  0  0  0  0  0
    0.4627   -0.7120    0.9998 C   0  0  0  0  0  0  0  0  0  0  0  0
    1.2065   -0.7699   -0.1795 C   0  0  0  0  0  0  0  0  0  0  0  0
    0.5904   -1.0269   -1.4067 C   0  0  0  0  0  0  0  0  0  0  0  0
   -0.7818   -1.2694   -1.4456 C   0  0  0  0  0  0  0  0  0  0  0  0
    2.6572   -0.5032   -0.1560 C   0  0  0  0  0  0  0  0  0  0  0  0
    3.0557    0.6808   -0.5157 N   0  0  0  0  0  0  0  0  0  0  0  0
    4.4358    0.9897   -0.5680 C   0  0  0  0  0  0  0  0  0  0  0  0
    4.7992    2.2562   -0.0873 C   0  0  0  0  0  0  0  0  0  0  0  0
    6.1278    2.6832   -0.0998 C   0  0  0  0  0  0  0  0  0  0  0  0
    7.1168    1.8491   -0.6081 C   0  0  0  0  0  0  0  0  0  0  0  0
    6.7745    0.5902   -1.1037 C   0  0  0  0  0  0  0  0  0  0  0  0
    5.4471    0.1381   -1.0879 C   0  0  0  0  0  0  0  0  0  0  0  0
    5.2167   -1.1368   -1.6517 N   0  0  0  0  0  0  0  0  0  0  0  0
    4.3916   -1.9633   -1.0847 C   0  0  0  0  0  0  0  0  0  0  0  0
    3.6296   -1.6293    0.1900 C   0  0  3  0  0  0  0  0  0  0  0  0
    3.1001   -2.8588    0.9347 C   0  0  0  0  0  0  0  0  0  0  0  0
    2.6029   -3.9844    0.0373 C   0  0  0  0  0  0  0  0  0  0  0  0
    3.6865   -4.3824   -0.9531 C   0  0  0  0  0  0  0  0  0  0  0  0
    4.0396   -3.2182   -1.8569 C   0  0  0  0  0  0  0  0  0  0  0  0
   -2.6004   -1.4243   -0.2996 H   0  0  0  0  0  0  0  0  0  0  0  0
   -1.5001   -0.9190    1.8659 H   0  0  0  0  0  0  0  0  0  0  0  0
    0.9407   -0.4698    1.9443 H   0  0  0  0  0  0  0  0  0  0  0  0
    1.1715   -1.0247   -2.3258 H   0  0  0  0  0  0  0  0  0  0  0  0
   -1.2718   -1.4681   -2.3951 H   0  0  0  0  0  0  0  0  0  0  0  0
    4.0256    2.9164    0.2974 H   0  0  0  0  0  0  0  0  0  0  0  0
    6.3838    3.6691    0.2775 H   0  0  0  0  0  0  0  0  0  0  0  0
    8.1520    2.1781   -0.6319 H   0  0  0  0  0  0  0  0  0  0  0  0
    7.5474   -0.0532   -1.5181 H   0  0  0  0  0  0  0  0  0  0  0  0
    4.3463   -1.1855    0.8967 H   0  0  0  0  0  0  0  0  0  0  0  0
    3.9257   -3.2650    1.5368 H   0  0  0  0  0  0  0  0  0  0  0  0
    2.3245   -2.5897    1.6577 H   0  0  0  0  0  0  0  0  0  0  0  0
    2.3379   -4.8501    0.6553 H   0  0  0  0  0  0  0  0  0  0  0  0
    1.6946   -3.6845   -0.4950 H   0  0  0  0  0  0  0  0  0  0  0  0
    3.3411   -5.2272   -1.5595 H   0  0  0  0  0  0  0  0  0  0  0  0
    4.5790   -4.7180   -0.4105 H   0  0  0  0  0  0  0  0  0  0  0  0
    4.8786   -3.4920   -2.5062 H   0  0  0  0  0  0  0  0  0  0  0  0
    3.1895   -2.9742   -2.5049 H   0  0  0  0  0  0  0  0  0  0  0  0
  1  2  2  0  0  0  0
  1  6  1  0  0  0  0
  1 22  1  0  0  0  0
  2  3  1  0  0  0  0
  2 23  1  0  0  0  0
  3  4  2  0  0  0  0
  3 24  1  0  0  0  0
  4  5  1  0  0  0  0
  4  7  1  0  0  0  0
  5  6  2  0  0  0  0
  5 25  1  0  0  0  0
  6 26  1  0  0  0  0
  7 17  1  0  0  0  0
  7  8  2  0  0  0  0
  8  9  1  0  0  0  0
  9 14  1  0  0  0  0
  9 10  2  0  0  0  0
 10 11  1  0  0  0  0
 10 27  1  0  0  0  0
 11 12  2  0  0  0  0
 11 28  1  0  0  0  0
 12 13  1  0  0  0  0
 12 29  1  0  0  0  0
 13 14  2  0  0  0  0
 13 30  1  0  0  0  0
 14 15  1  0  0  0  0
 15 16  2  0  0  0  0
 16 17  1  0  0  0  0
 16 21  1  0  0  0  0
 17 18  1  0  0  0  0
 17 31  1  0  0  0  0
 18 19  1  0  0  0  0
 18 32  1  0  0  0  0
 18 33  1  0  0  0  0
 19 20  1  0  0  0  0
 19 34  1  0  0  0  0
 19 35  1  0  0  0  0
 20 21  1  0  0  0  0
 20 36  1  0  0  0  0
 20 37  1  0  0  0  0
 21 38  1  0  0  0  0
 21 39  1  0  0  0  0
M  END
$$$$