26749480 26749479
 OpenBabel01211414053D

 54 55  0  0  1  0  0  0  0  0999 V2000
   -2.8869    7.6758    9.0736 C   0  0  0  0  0  0  0  0  0  0  0  0
   -2.7092    8.2798    7.6794 C   0  0  2  0  0  0  0  0  0  0  0  0
   -2.9175    9.3493    7.7715 H   0  0  0  0  0  0  0  0  0  0  0  0
   -3.6827    7.6280    6.6715 C   0  0  2  0  0  0  0  0  0  0  0  0
   -4.7099    7.7467    7.0343 H   0  0  0  0  0  0  0  0  0  0  0  0
   -3.4294    6.2230    6.5696 O   0  0  0  0  0  0  0  0  0  0  0  0
   -3.5952    8.2161    5.2686 C   0  0  0  0  0  0  0  0  0  0  0  0
   -1.3543    8.0058    7.2930 O   0  0  0  0  0  0  0  0  0  0  0  0
   -0.5935    8.9430    6.6393 C   0  0  0  0  0  0  0  0  0  0  0  0
   -0.9440   10.2056    6.3389 C   0  0  0  0  0  0  0  0  0  0  0  0
    0.7438    8.4390    6.2502 C   0  0  0  0  0  0  0  0  0  0  0  0
    1.5005    7.6559    7.1303 C   0  0  0  0  0  0  0  0  0  0  0  0
    2.7729    7.1952    6.7669 C   0  0  0  0  0  0  0  0  0  0  0  0
    3.3159    7.5050    5.5091 C   0  0  0  0  0  0  0  0  0  0  0  0
    2.5500    8.2641    4.6061 C   0  0  0  0  0  0  0  0  0  0  0  0
    1.2740    8.7129    4.9813 C   0  0  0  0  0  0  0  0  0  0  0  0
    3.0698    8.5702    3.3403 C   0  0  0  0  0  0  0  0  0  0  0  0
    4.3502    8.1526    2.9419 C   0  0  0  0  0  0  0  0  0  0  0  0
    5.1115    7.4153    3.8580 C   0  0  0  0  0  0  0  0  0  0  0  0
    4.5983    7.0853    5.1208 C   0  0  0  0  0  0  0  0  0  0  0  0
    4.8351    8.5202    1.5866 C   0  0  0  0  0  0  0  0  0  0  0  0
    5.6766    7.7267    0.9033 C   0  0  0  0  0  0  0  0  0  0  0  0
    4.2867    9.6960    1.1173 O   0  0  0  0  0  0  0  0  0  0  0  0
    4.1877    9.9374   -0.2962 C   0  0  2  0  0  0  0  0  0  0  0  0
    5.1574    9.7941   -0.7854 H   0  0  0  0  0  0  0  0  0  0  0  0
    3.7719   11.4173   -0.4862 C   0  0  1  0  0  0  0  0  0  0  0  0
    3.6182   11.6208   -1.5519 H   0  0  0  0  0  0  0  0  0  0  0  0
    2.5318   11.6808    0.1799 O   0  0  0  0  0  0  0  0  0  0  0  0
    4.8068   12.3948    0.0577 C   0  0  0  0  0  0  0  0  0  0  0  0
    3.1278    9.0167   -0.9086 C   0  0  0  0  0  0  0  0  0  0  0  0
   -3.9072    7.8234    9.4410 H   0  0  0  0  0  0  0  0  0  0  0  0
   -2.1932    8.1456    9.7797 H   0  0  0  0  0  0  0  0  0  0  0  0
   -2.6603    6.6043    9.0807 H   0  0  0  0  0  0  0  0  0  0  0  0
   -2.4659    6.1317    6.4366 H   0  0  0  0  0  0  0  0  0  0  0  0
   -4.3509    7.7569    4.6217 H   0  0  0  0  0  0  0  0  0  0  0  0
   -2.6283    8.0038    4.8007 H   0  0  0  0  0  0  0  0  0  0  0  0
   -3.7620    9.2970    5.2767 H   0  0  0  0  0  0  0  0  0  0  0  0
   -1.9044   10.6394    6.5786 H   0  0  0  0  0  0  0  0  0  0  0  0
   -0.2576   10.8774    5.8306 H   0  0  0  0  0  0  0  0  0  0  0  0
    1.1080    7.4068    8.1139 H   0  0  0  0  0  0  0  0  0  0  0  0
    3.3375    6.5964    7.4783 H   0  0  0  0  0  0  0  0  0  0  0  0
    0.6855    9.2861    4.2676 H   0  0  0  0  0  0  0  0  0  0  0  0
    2.4581    9.1440    2.6466 H   0  0  0  0  0  0  0  0  0  0  0  0
    6.1183    7.0898    3.6106 H   0  0  0  0  0  0  0  0  0  0  0  0
    5.2145    6.5030    5.8026 H   0  0  0  0  0  0  0  0  0  0  0  0
    6.0341    6.7853    1.3071 H   0  0  0  0  0  0  0  0  0  0  0  0
    6.0368    7.9697   -0.0878 H   0  0  0  0  0  0  0  0  0  0  0  0
    2.6498   11.3678    1.0966 H   0  0  0  0  0  0  0  0  0  0  0  0
    4.9194   12.2978    1.1427 H   0  0  0  0  0  0  0  0  0  0  0  0
    4.4835   13.4252   -0.1287 H   0  0  0  0  0  0  0  0  0  0  0  0
    5.7816   12.2462   -0.4154 H   0  0  0  0  0  0  0  0  0  0  0  0
    3.0087    9.2133   -1.9784 H   0  0  0  0  0  0  0  0  0  0  0  0
    2.1573    9.1464   -0.4170 H   0  0  0  0  0  0  0  0  0  0  0  0
    3.3942    7.9624   -0.7874 H   0  0  0  0  0  0  0  0  0  0  0  0
  1 31  1  0  0  0  0
  1 32  1  0  0  0  0
  1 33  1  0  0  0  0
  2  3  1  1  0  0  0
  2  8  1  0  0  0  0
  2  1  1  0  0  0  0
  4  6  1  0  0  0  0
  4  5  1  1  0  0  0
  4  7  1  0  0  0  0
  4  2  1  0  0  0  0
  6 34  1  0  0  0  0
  7 35  1  0  0  0  0
  7 36  1  0  0  0  0
  7 37  1  0  0  0  0
  8  9  1  0  0  0  0
  9 11  1  0  0  0  0
  9 10  2  0  0  0  0
 10 38  1  0  0  0  0
 10 39  1  0  0  0  0
 11 12  2  0  0  0  0
 11 16  1  0  0  0  0
 12 13  1  0  0  0  0
 12 40  1  0  0  0  0
 13 14  2  0  0  0  0
 13 41  1  0  0  0  0
 14 20  1  0  0  0  0
 14 15  1  0  0  0  0
 15 17  1  0  0  0  0
 15 16  2  0  0  0  0
 16 42  1  0  0  0  0
 17 18  2  0  0  0  0
 17 43  1  0  0  0  0
 18 19  1  0  0  0  0
 18 21  1  0  0  0  0
 19 20  2  0  0  0  0
 19 44  1  0  0  0  0
 20 45  1  0  0  0  0
 21 23  1  0  0  0  0
 21 22  2  0  0  0  0
 22 46  1  0  0  0  0
 22 47  1  0  0  0  0
 24 26  1  0  0  0  0
 24 25  1  6  0  0  0
 24 30  1  0  0  0  0
 24 23  1  0  0  0  0
 26 29  1  0  0  0  0
 26 28  1  0  0  0  0
 26 27  1  6  0  0  0
 28 48  1  0  0  0  0
 29 49  1  0  0  0  0
 29 50  1  0  0  0  0
 29 51  1  0  0  0  0
 30 52  1  0  0  0  0
 30 53  1  0  0  0  0
 30 54  1  0  0  0  0
M  END
$$$$