2855145 2855144
 OpenBabel01211413503D

 29 30  0  0  0  0  0  0  0  0999 V2000
    1.3931   -0.4023   -0.8898 N   0  0  0  0  0  0  0  0  0  0  0  0
    2.5040   -0.0542   -0.0037 N   0  0  0  0  0  0  0  0  0  0  0  0
    3.0973   -1.3844    1.0195 P   0  0  3  0  0  0  0  0  0  0  0  0
    4.8686   -0.3469    1.0931 S   0  0  0  0  0  0  0  0  0  0  0  0
    1.7336   -0.9403    2.2849 C   0  0  0  0  0  0  0  0  0  0  0  0
    0.5079   -1.6219    2.2175 C   0  0  0  0  0  0  0  0  0  0  0  0
   -0.5049   -1.3214    3.1272 C   0  0  0  0  0  0  0  0  0  0  0  0
   -0.2993   -0.3468    4.1046 C   0  0  0  0  0  0  0  0  0  0  0  0
    0.9140    0.3388    4.1702 C   0  0  0  0  0  0  0  0  0  0  0  0
    1.9295    0.0520    3.2588 C   0  0  0  0  0  0  0  0  0  0  0  0
    3.6946   -2.7235    2.0497 C   0  0  0  0  0  0  0  0  0  0  0  0
    4.1033   -2.6029    3.3931 C   0  0  0  0  0  0  0  0  0  0  0  0
    4.5297   -3.7154    4.1232 C   0  0  0  0  0  0  0  0  0  0  0  0
    4.5557   -4.9715    3.5267 C   0  0  0  0  0  0  0  0  0  0  0  0
    4.1583   -5.1187    2.2008 C   0  0  0  0  0  0  0  0  0  0  0  0
    3.7311   -4.0060    1.4703 C   0  0  0  0  0  0  0  0  0  0  0  0
    0.9812    0.4516   -1.2825 H   0  0  0  0  0  0  0  0  0  0  0  0
    1.7515   -0.9018   -1.7112 H   0  0  0  0  0  0  0  0  0  0  0  0
    2.3268    0.7675    0.5767 H   0  0  0  0  0  0  0  0  0  0  0  0
    0.3418   -2.3749    1.4516 H   0  0  0  0  0  0  0  0  0  0  0  0
   -1.4563   -1.8451    3.0748 H   0  0  0  0  0  0  0  0  0  0  0  0
   -1.0894   -0.1190    4.8161 H   0  0  0  0  0  0  0  0  0  0  0  0
    1.0680    1.0970    4.9343 H   0  0  0  0  0  0  0  0  0  0  0  0
    2.8713    0.5925    3.3180 H   0  0  0  0  0  0  0  0  0  0  0  0
    4.1091   -1.6331    3.8829 H   0  0  0  0  0  0  0  0  0  0  0  0
    4.8472   -3.5939    5.1556 H   0  0  0  0  0  0  0  0  0  0  0  0
    4.8926   -5.8355    4.0947 H   0  0  0  0  0  0  0  0  0  0  0  0
    4.1860   -6.1005    1.7340 H   0  0  0  0  0  0  0  0  0  0  0  0
    3.4303   -4.1456    0.4340 H   0  0  0  0  0  0  0  0  0  0  0  0
  1  2  1  0  0  0  0
  1 17  1  0  0  0  0
  1 18  1  0  0  0  0
  2  3  1  0  0  0  0
  2 19  1  0  0  0  0
  3 11  1  0  0  0  0
  3  5  1  0  0  0  0
  3  4  2  0  0  0  0
  5  6  2  0  0  0  0
  5 10  1  0  0  0  0
  6  7  1  0  0  0  0
  6 20  1  0  0  0  0
  7  8  2  0  0  0  0
  7 21  1  0  0  0  0
  8  9  1  0  0  0  0
  8 22  1  0  0  0  0
  9 10  2  0  0  0  0
  9 23  1  0  0  0  0
 10 24  1  0  0  0  0
 11 12  2  0  0  0  0
 11 16  1  0  0  0  0
 12 13  1  0  0  0  0
 12 25  1  0  0  0  0
 13 14  2  0  0  0  0
 13 26  1  0  0  0  0
 14 15  1  0  0  0  0
 14 27  1  0  0  0  0
 15 16  2  0  0  0  0
 15 28  1  0  0  0  0
 16 29  1  0  0  0  0
M  END
$$$$