615857 615856
 OpenBabel01211413283D

 41 44  0  0  1  0  0  0  0  0999 V2000
    1.3831   -2.2569    0.1700 Cl  0  0  0  0  0  0  0  0  0  0  0  0
    2.9847   -1.6987   -0.1159 C   0  0  0  0  0  0  0  0  0  0  0  0
    3.9419   -2.5743   -0.6246 C   0  0  0  0  0  0  0  0  0  0  0  0
    5.2447   -2.1228   -0.8594 C   0  0  0  0  0  0  0  0  0  0  0  0
    5.5930   -0.7906   -0.5865 C   0  0  0  0  0  0  0  0  0  0  0  0
    4.6201    0.0778   -0.0702 C   0  0  0  0  0  0  0  0  0  0  0  0
    3.3179   -0.3749    0.1636 C   0  0  0  0  0  0  0  0  0  0  0  0
    6.9659   -0.2689   -0.8235 C   0  0  0  0  0  0  0  0  0  0  0  0
    7.3247    0.9165   -0.4864 N   0  0  0  0  0  0  0  0  0  0  0  0
    8.7034    1.3472   -0.7259 C   0  0  3  0  0  0  0  0  0  0  0  0
    9.5130    0.3572   -1.4981 C   0  0  0  0  0  0  0  0  0  0  0  0
    9.0297   -0.8505   -1.8042 C   0  0  0  0  0  0  0  0  0  0  0  0
    7.7271   -1.2143   -1.4342 O   0  0  0  0  0  0  0  0  0  0  0  0
    9.7711   -1.8933   -2.5434 C   0  0  0  0  0  0  0  0  0  0  0  0
    9.0736   -2.8357   -3.3170 C   0  0  0  0  0  0  0  0  0  0  0  0
    9.7486   -3.8505   -4.0016 C   0  0  0  0  0  0  0  0  0  0  0  0
   11.1352   -3.9391   -3.9234 C   0  0  0  0  0  0  0  0  0  0  0  0
   11.8453   -3.0172   -3.1589 C   0  0  0  0  0  0  0  0  0  0  0  0
   11.1682   -2.0051   -2.4703 C   0  0  0  0  0  0  0  0  0  0  0  0
    9.3841    1.7155    0.5842 C   0  0  0  0  0  0  0  0  0  0  0  0
    9.5033    0.7764    1.6228 C   0  0  0  0  0  0  0  0  0  0  0  0
   10.1340    1.1129    2.8217 C   0  0  0  0  0  0  0  0  0  0  0  0
   10.6532    2.3933    2.9989 C   0  0  0  0  0  0  0  0  0  0  0  0
   10.5420    3.3367    1.9796 C   0  0  0  0  0  0  0  0  0  0  0  0
    9.9120    3.0014    0.7785 C   0  0  0  0  0  0  0  0  0  0  0  0
    3.6833   -3.6080   -0.8393 H   0  0  0  0  0  0  0  0  0  0  0  0
    5.9751   -2.8266   -1.2509 H   0  0  0  0  0  0  0  0  0  0  0  0
    4.8702    1.1138    0.1535 H   0  0  0  0  0  0  0  0  0  0  0  0
    2.5736    0.3095    0.5626 H   0  0  0  0  0  0  0  0  0  0  0  0
    8.6381    2.2496   -1.3477 H   0  0  0  0  0  0  0  0  0  0  0  0
   10.5067    0.6684   -1.8005 H   0  0  0  0  0  0  0  0  0  0  0  0
    7.9900   -2.7872   -3.3996 H   0  0  0  0  0  0  0  0  0  0  0  0
    9.1892   -4.5700   -4.5935 H   0  0  0  0  0  0  0  0  0  0  0  0
   11.6615   -4.7279   -4.4543 H   0  0  0  0  0  0  0  0  0  0  0  0
   12.9279   -3.0874   -3.0907 H   0  0  0  0  0  0  0  0  0  0  0  0
   11.7507   -1.3164   -1.8634 H   0  0  0  0  0  0  0  0  0  0  0  0
    9.0967   -0.2253    1.4999 H   0  0  0  0  0  0  0  0  0  0  0  0
   10.2153    0.3767    3.6164 H   0  0  0  0  0  0  0  0  0  0  0  0
   11.1409    2.6570    3.9338 H   0  0  0  0  0  0  0  0  0  0  0  0
   10.9424    4.3373    2.1207 H   0  0  0  0  0  0  0  0  0  0  0  0
    9.8298    3.7534   -0.0025 H   0  0  0  0  0  0  0  0  0  0  0  0
  1  2  1  0  0  0  0
  2  3  2  0  0  0  0
  2  7  1  0  0  0  0
  3  4  1  0  0  0  0
  3 26  1  0  0  0  0
  4  5  2  0  0  0  0
  4 27  1  0  0  0  0
  5  6  1  0  0  0  0
  5  8  1  0  0  0  0
  6  7  2  0  0  0  0
  6 28  1  0  0  0  0
  7 29  1  0  0  0  0
  8  9  2  0  0  0  0
  8 13  1  0  0  0  0
  9 10  1  0  0  0  0
 10 11  1  0  0  0  0
 10 20  1  0  0  0  0
 10 30  1  0  0  0  0
 11 12  2  0  0  0  0
 11 31  1  0  0  0  0
 12 13  1  0  0  0  0
 12 14  1  0  0  0  0
 14 15  2  0  0  0  0
 14 19  1  0  0  0  0
 15 16  1  0  0  0  0
 15 32  1  0  0  0  0
 16 17  2  0  0  0  0
 16 33  1  0  0  0  0
 17 18  1  0  0  0  0
 17 34  1  0  0  0  0
 18 19  2  0  0  0  0
 18 35  1  0  0  0  0
 19 36  1  0  0  0  0
 20 21  2  0  0  0  0
 20 25  1  0  0  0  0
 21 22  1  0  0  0  0
 21 37  1  0  0  0  0
 22 23  2  0  0  0  0
 22 38  1  0  0  0  0
 23 24  1  0  0  0  0
 23 39  1  0  0  0  0
 24 25  2  0  0  0  0
 24 40  1  0  0  0  0
 25 41  1  0  0  0  0
M  END
$$$$