32502 32501
 OpenBabel01211413143D

 27 27  0  0  1  0  0  0  0  0999 V2000
    2.2926   -0.8591    1.0755 C   0  0  0  0  0  0  0  0  0  0  0  0
    3.6303   -1.1168    0.4389 C   0  0  0  0  0  0  0  0  0  0  0  0
    3.7901   -1.6177   -0.8026 C   0  0  0  0  0  0  0  0  0  0  0  0
    2.7283   -1.9924   -1.7489 C   0  0  3  0  0  0  0  0  0  0  0  0
    2.9506   -2.9651   -2.8885 C   0  0  3  0  0  0  0  0  0  0  0  0
    2.1141   -3.3824   -1.6841 C   0  0  0  0  0  0  0  0  0  0  0  0
    2.6459   -4.4079   -0.7077 C   0  0  0  0  0  0  0  0  0  0  0  0
    0.6215   -3.4903   -1.8903 C   0  0  0  0  0  0  0  0  0  0  0  0
    4.2780   -3.5587   -3.2110 C   0  0  0  0  0  0  0  0  0  0  0  0
    4.4995   -4.7468   -3.0187 O   0  0  0  0  0  0  0  0  0  0  0  0
    5.3409   -2.4174   -3.9728 Cl  0  0  0  0  0  0  0  0  0  0  0  0
    4.8165   -0.7715    1.2989 C   0  0  0  0  0  0  0  0  0  0  0  0
    2.1990   -1.4350    2.0019 H   0  0  0  0  0  0  0  0  0  0  0  0
    1.4528   -1.1323    0.4314 H   0  0  0  0  0  0  0  0  0  0  0  0
    2.1915    0.2042    1.3172 H   0  0  0  0  0  0  0  0  0  0  0  0
    4.8142   -1.7455   -1.1492 H   0  0  0  0  0  0  0  0  0  0  0  0
    2.0664   -1.1602   -1.9807 H   0  0  0  0  0  0  0  0  0  0  0  0
    2.3877   -2.7633   -3.7978 H   0  0  0  0  0  0  0  0  0  0  0  0
    3.7194   -4.3126   -0.5201 H   0  0  0  0  0  0  0  0  0  0  0  0
    2.4630   -5.4186   -1.0888 H   0  0  0  0  0  0  0  0  0  0  0  0
    2.1328   -4.3123    0.2551 H   0  0  0  0  0  0  0  0  0  0  0  0
    0.2484   -2.7398   -2.5952 H   0  0  0  0  0  0  0  0  0  0  0  0
    0.0947   -3.3493   -0.9412 H   0  0  0  0  0  0  0  0  0  0  0  0
    0.3641   -4.4784   -2.2859 H   0  0  0  0  0  0  0  0  0  0  0  0
    4.8072    0.2951    1.5460 H   0  0  0  0  0  0  0  0  0  0  0  0
    5.7674   -0.9898    0.8022 H   0  0  0  0  0  0  0  0  0  0  0  0
    4.7890   -1.3458    2.2302 H   0  0  0  0  0  0  0  0  0  0  0  0
  1  2  1  0  0  0  0
  1 13  1  0  0  0  0
  1 14  1  0  0  0  0
  1 15  1  0  0  0  0
  2 12  1  0  0  0  0
  2  3  2  0  0  0  0
  3  4  1  0  0  0  0
  3 16  1  0  0  0  0
  4  6  1  0  0  0  0
  4  5  1  0  0  0  0
  4 17  1  0  0  0  0
  5  6  1  0  0  0  0
  5  9  1  0  0  0  0
  5 18  1  0  0  0  0
  6  8  1  0  0  0  0
  6  7  1  0  0  0  0
  7 19  1  0  0  0  0
  7 20  1  0  0  0  0
  7 21  1  0  0  0  0
  8 22  1  0  0  0  0
  8 23  1  0  0  0  0
  8 24  1  0  0  0  0
  9 11  1  0  0  0  0
  9 10  2  0  0  0  0
 12 25  1  0  0  0  0
 12 26  1  0  0  0  0
 12 27  1  0  0  0  0
M  END
$$$$