509389 509388
 OpenBabel01211413213D

 31 31  0  0  1  0  0  0  0  0999 V2000
    1.3714    0.1280    0.6130 C   0  0  0  0  0  0  0  0  0  0  0  0
    3.2167    0.1065    0.4061 Si  0  0  0  0  0  0  0  0  0  0  0  0
    3.8441    1.7416   -0.3132 C   0  0  0  0  0  0  0  0  0  0  0  0
    3.3235    2.0828   -1.7155 C   0  0  0  0  0  0  0  0  0  0  0  0
    3.8359    3.4374   -2.2460 C   0  0  3  0  0  0  0  0  0  0  0  0
    3.1996    3.7443   -3.6126 C   0  0  0  0  0  0  0  0  0  0  0  0
    3.6420    5.1070   -4.1524 C   0  0  0  0  0  0  0  0  0  0  0  0
    5.1095    5.3594   -3.9797 C   0  0  0  0  0  0  0  0  0  0  0  0
    5.8902    4.6168   -3.1839 C   0  0  0  0  0  0  0  0  0  0  0  0
    5.3744    3.4781   -2.3530 C   0  0  0  0  0  0  0  0  0  0  0  0
    4.0652   -0.1098    2.2686 Cl  0  0  0  0  0  0  0  0  0  0  0  0
    3.7671   -1.3250   -0.6444 C   0  0  0  0  0  0  0  0  0  0  0  0
    1.0177   -0.7952    1.0822 H   0  0  0  0  0  0  0  0  0  0  0  0
    0.8691    0.2241   -0.3542 H   0  0  0  0  0  0  0  0  0  0  0  0
    1.0545    0.9668    1.2403 H   0  0  0  0  0  0  0  0  0  0  0  0
    4.9376    1.6823   -0.3264 H   0  0  0  0  0  0  0  0  0  0  0  0
    3.5734    2.5466    0.3800 H   0  0  0  0  0  0  0  0  0  0  0  0
    2.2257    2.1074   -1.6969 H   0  0  0  0  0  0  0  0  0  0  0  0
    3.6017    1.2878   -2.4198 H   0  0  0  0  0  0  0  0  0  0  0  0
    3.5183    4.2210   -1.5434 H   0  0  0  0  0  0  0  0  0  0  0  0
    2.1056    3.7265   -3.5387 H   0  0  0  0  0  0  0  0  0  0  0  0
    3.4793    2.9622   -4.3311 H   0  0  0  0  0  0  0  0  0  0  0  0
    3.0907    5.9055   -3.6422 H   0  0  0  0  0  0  0  0  0  0  0  0
    3.3854    5.1681   -5.2162 H   0  0  0  0  0  0  0  0  0  0  0  0
    5.5425    6.1852   -4.5393 H   0  0  0  0  0  0  0  0  0  0  0  0
    6.9530    4.8371   -3.1171 H   0  0  0  0  0  0  0  0  0  0  0  0
    5.7523    2.5424   -2.7828 H   0  0  0  0  0  0  0  0  0  0  0  0
    5.8030    3.5678   -1.3480 H   0  0  0  0  0  0  0  0  0  0  0  0
    3.4619   -2.2785   -0.2025 H   0  0  0  0  0  0  0  0  0  0  0  0
    4.8561   -1.3373   -0.7532 H   0  0  0  0  0  0  0  0  0  0  0  0
    3.3311   -1.2659   -1.6463 H   0  0  0  0  0  0  0  0  0  0  0  0
  1  2  1  0  0  0  0
  1 13  1  0  0  0  0
  1 14  1  0  0  0  0
  1 15  1  0  0  0  0
  2 12  1  0  0  0  0
  2 11  1  0  0  0  0
  2  3  1  0  0  0  0
  3  4  1  0  0  0  0
  3 16  1  0  0  0  0
  3 17  1  0  0  0  0
  4  5  1  0  0  0  0
  4 18  1  0  0  0  0
  4 19  1  0  0  0  0
  5  6  1  0  0  0  0
  5 10  1  0  0  0  0
  5 20  1  0  0  0  0
  6  7  1  0  0  0  0
  6 21  1  0  0  0  0
  6 22  1  0  0  0  0
  7  8  1  0  0  0  0
  7 23  1  0  0  0  0
  7 24  1  0  0  0  0
  8  9  2  0  0  0  0
  8 25  1  0  0  0  0
  9 10  1  0  0  0  0
  9 26  1  0  0  0  0
 10 27  1  0  0  0  0
 10 28  1  0  0  0  0
 12 29  1  0  0  0  0
 12 30  1  0  0  0  0
 12 31  1  0  0  0  0
M  END
$$$$