5867757 5867756
 OpenBabel01211413563D

 31 33  0  0  0  0  0  0  0  0999 V2000
    3.1795   -0.5012    1.3499 O   0  0  0  0  0  0  0  0  0  0  0  0
    3.2147    0.0981    0.0605 C   0  0  0  0  0  0  0  0  0  0  0  0
    3.1968   -0.9489   -1.0207 C   0  0  0  0  0  0  0  0  0  0  0  0
    2.5753   -0.6844   -2.2452 C   0  0  0  0  0  0  0  0  0  0  0  0
    2.5835   -1.6374   -3.2723 C   0  0  0  0  0  0  0  0  0  0  0  0
    3.2286   -2.8771   -3.1203 C   0  0  0  0  0  0  0  0  0  0  0  0
    3.8650   -3.1211   -1.8921 C   0  0  0  0  0  0  0  0  0  0  0  0
    3.8512   -2.1748   -0.8602 C   0  0  0  0  0  0  0  0  0  0  0  0
    3.2393   -3.8821   -4.2086 C   0  0  0  0  0  0  0  0  0  0  0  0
    3.3932   -3.4918   -5.5639 C   0  0  0  0  0  0  0  0  0  0  0  0
    3.4045   -4.4229   -6.6119 C   0  0  0  0  0  0  0  0  0  0  0  0
    3.2734   -5.7595   -6.2976 C   0  0  0  0  0  0  0  0  0  0  0  0
    3.1283   -6.1714   -4.9703 C   0  0  0  0  0  0  0  0  0  0  0  0
    3.1022   -5.2559   -3.9277 C   0  0  0  0  0  0  0  0  0  0  0  0
    3.0219   -7.6648   -4.9179 C   0  0  0  0  0  0  0  0  0  0  0  0
    3.1177   -8.0096   -6.3851 C   0  0  0  0  0  0  0  0  0  0  0  0
    3.2589   -6.9248   -7.1642 C   0  0  0  0  0  0  0  0  0  0  0  0
    3.1578    0.2259    1.9933 H   0  0  0  0  0  0  0  0  0  0  0  0
    4.1261    0.6991   -0.0250 H   0  0  0  0  0  0  0  0  0  0  0  0
    2.3423    0.7547   -0.0258 H   0  0  0  0  0  0  0  0  0  0  0  0
    2.0700    0.2634   -2.4126 H   0  0  0  0  0  0  0  0  0  0  0  0
    2.0628   -1.3994   -4.1988 H   0  0  0  0  0  0  0  0  0  0  0  0
    4.3955   -4.0547   -1.7227 H   0  0  0  0  0  0  0  0  0  0  0  0
    4.3537   -2.4041    0.0786 H   0  0  0  0  0  0  0  0  0  0  0  0
    3.5216   -2.4403   -5.8142 H   0  0  0  0  0  0  0  0  0  0  0  0
    3.5217   -4.0954   -7.6389 H   0  0  0  0  0  0  0  0  0  0  0  0
    2.9667   -5.6089   -2.9095 H   0  0  0  0  0  0  0  0  0  0  0  0
    3.8543   -8.1038   -4.3594 H   0  0  0  0  0  0  0  0  0  0  0  0
    2.0620   -7.9838   -4.5013 H   0  0  0  0  0  0  0  0  0  0  0  0
    3.0755   -9.0246   -6.7527 H   0  0  0  0  0  0  0  0  0  0  0  0
    3.3485   -6.8947   -8.2377 H   0  0  0  0  0  0  0  0  0  0  0  0
  1  2  1  0  0  0  0
  1 18  1  0  0  0  0
  2  3  1  0  0  0  0
  2 19  1  0  0  0  0
  2 20  1  0  0  0  0
  3  4  2  0  0  0  0
  3  8  1  0  0  0  0
  4  5  1  0  0  0  0
  4 21  1  0  0  0  0
  5  6  2  0  0  0  0
  5 22  1  0  0  0  0
  6  7  1  0  0  0  0
  6  9  1  0  0  0  0
  7  8  2  0  0  0  0
  7 23  1  0  0  0  0
  8 24  1  0  0  0  0
  9 10  2  0  0  0  0
  9 14  1  0  0  0  0
 10 11  1  0  0  0  0
 10 25  1  0  0  0  0
 11 12  2  0  0  0  0
 11 26  1  0  0  0  0
 12 17  1  0  0  0  0
 12 13  1  0  0  0  0
 13 14  2  0  0  0  0
 13 15  1  0  0  0  0
 14 27  1  0  0  0  0
 15 16  1  0  0  0  0
 15 28  1  0  0  0  0
 15 29  1  0  0  0  0
 16 17  2  0  0  0  0
 16 30  1  0  0  0  0
 17 31  1  0  0  0  0
M  END
$$$$