549847 549846
 OpenBabel01211413253D

 24 24  0  0  0  0  0  0  0  0999 V2000
    3.3631    1.6405   -1.3325 C   0  0  0  0  0  0  0  0  0  0  0  0
    3.4937    2.8713   -0.0132 S   0  0  0  0  0  0  0  0  0  0  0  0
    4.5001    1.9495    1.1241 C   0  0  0  0  0  0  0  0  0  0  0  0
    3.7184    0.9678    2.2523 S   0  0  0  0  0  0  0  0  0  0  0  0
    6.0020    2.1190    1.0260 C   0  0  0  0  0  0  0  0  0  0  0  0
    6.5913    3.0282    0.1329 C   0  0  0  0  0  0  0  0  0  0  0  0
    7.9857    3.1735    0.0487 C   0  0  0  0  0  0  0  0  0  0  0  0
    8.8416    2.4204    0.8643 C   0  0  0  0  0  0  0  0  0  0  0  0
    8.2621    1.5170    1.7623 C   0  0  0  0  0  0  0  0  0  0  0  0
    6.8685    1.3651    1.8378 C   0  0  0  0  0  0  0  0  0  0  0  0
   10.3308    2.6064    0.7919 C   0  0  0  0  0  0  0  0  0  0  0  0
   11.0647    4.0908    0.4788 S   0  0  0  0  0  0  0  0  0  0  0  0
   11.3204    1.1711    1.1208 S   0  0  0  0  0  0  0  0  0  0  0  0
   11.9727    0.8478   -0.5312 C   0  0  0  0  0  0  0  0  0  0  0  0
    2.9140    2.1066   -2.2119 H   0  0  0  0  0  0  0  0  0  0  0  0
    2.7302    0.8086   -1.0173 H   0  0  0  0  0  0  0  0  0  0  0  0
    4.3499    1.2615   -1.6066 H   0  0  0  0  0  0  0  0  0  0  0  0
    5.9941    3.6615   -0.5181 H   0  0  0  0  0  0  0  0  0  0  0  0
    8.3805    3.8919   -0.6677 H   0  0  0  0  0  0  0  0  0  0  0  0
    8.8741    0.9243    2.4404 H   0  0  0  0  0  0  0  0  0  0  0  0
    6.4878    0.6450    2.5597 H   0  0  0  0  0  0  0  0  0  0  0  0
   12.5848   -0.0590   -0.5016 H   0  0  0  0  0  0  0  0  0  0  0  0
   12.6040    1.6716   -0.8771 H   0  0  0  0  0  0  0  0  0  0  0  0
   11.1560    0.6918   -1.2427 H   0  0  0  0  0  0  0  0  0  0  0  0
  1  2  1  0  0  0  0
  1 15  1  0  0  0  0
  1 16  1  0  0  0  0
  1 17  1  0  0  0  0
  2  3  1  0  0  0  0
  3  5  1  0  0  0  0
  3  4  2  0  0  0  0
  5  6  2  0  0  0  0
  5 10  1  0  0  0  0
  6  7  1  0  0  0  0
  6 18  1  0  0  0  0
  7  8  2  0  0  0  0
  7 19  1  0  0  0  0
  8  9  1  0  0  0  0
  8 11  1  0  0  0  0
  9 10  2  0  0  0  0
  9 20  1  0  0  0  0
 10 21  1  0  0  0  0
 11 13  1  0  0  0  0
 11 12  2  0  0  0  0
 13 14  1  0  0  0  0
 14 22  1  0  0  0  0
 14 23  1  0  0  0  0
 14 24  1  0  0  0  0
M  END
$$$$