32571 32570
 OpenBabel01211413143D

 29 30  0  0  0  0  0  0  0  0999 V2000
    1.0846   -0.3648   -0.1721 O   0  0  0  0  0  0  0  0  0  0  0  0
    2.4184   -0.0353    0.0718 N   0  0  0  0  0  0  0  0  0  0  0  0
    2.5714    0.9323    0.9324 C   0  0  0  0  0  0  0  0  0  0  0  0
    1.4823    1.7348    1.5780 C   0  0  0  0  0  0  0  0  0  0  0  0
    0.3842    2.1762    0.8303 C   0  0  0  0  0  0  0  0  0  0  0  0
   -0.6257    2.9337    1.4328 C   0  0  0  0  0  0  0  0  0  0  0  0
   -0.5293    3.2773    2.7801 C   0  0  0  0  0  0  0  0  0  0  0  0
    0.5697    2.8600    3.5276 C   0  0  0  0  0  0  0  0  0  0  0  0
    1.5703    2.0859    2.9323 C   0  0  0  0  0  0  0  0  0  0  0  0
    4.0166    1.2451    1.3244 C   0  0  0  0  0  0  0  0  0  0  0  0
    4.4444    2.6665    1.0510 C   0  0  0  0  0  0  0  0  0  0  0  0
    4.8612    3.5006    2.0978 C   0  0  0  0  0  0  0  0  0  0  0  0
    5.2866    4.8042    1.8380 C   0  0  0  0  0  0  0  0  0  0  0  0
    5.3047    5.2843    0.5304 C   0  0  0  0  0  0  0  0  0  0  0  0
    4.8966    4.4626   -0.5186 C   0  0  0  0  0  0  0  0  0  0  0  0
    4.4688    3.1595   -0.2607 C   0  0  0  0  0  0  0  0  0  0  0  0
    1.1616   -1.0957   -0.8134 H   0  0  0  0  0  0  0  0  0  0  0  0
    0.3044    1.9384   -0.2268 H   0  0  0  0  0  0  0  0  0  0  0  0
   -1.4814    3.2561    0.8488 H   0  0  0  0  0  0  0  0  0  0  0  0
   -1.3108    3.8728    3.2462 H   0  0  0  0  0  0  0  0  0  0  0  0
    0.6474    3.1345    4.5770 H   0  0  0  0  0  0  0  0  0  0  0  0
    2.4056    1.7628    3.5448 H   0  0  0  0  0  0  0  0  0  0  0  0
    4.6902    0.5793    0.7690 H   0  0  0  0  0  0  0  0  0  0  0  0
    4.1582    0.9846    2.3794 H   0  0  0  0  0  0  0  0  0  0  0  0
    4.8634    3.1408    3.1241 H   0  0  0  0  0  0  0  0  0  0  0  0
    5.6082    5.4436    2.6557 H   0  0  0  0  0  0  0  0  0  0  0  0
    5.6412    6.2978    0.3277 H   0  0  0  0  0  0  0  0  0  0  0  0
    4.9151    4.8347   -1.5394 H   0  0  0  0  0  0  0  0  0  0  0  0
    4.1606    2.5257   -1.0903 H   0  0  0  0  0  0  0  0  0  0  0  0
  1  2  1  0  0  0  0
  1 17  1  0  0  0  0
  2  3  2  0  0  0  0
  3 10  1  0  0  0  0
  3  4  1  0  0  0  0
  4  5  2  0  0  0  0
  4  9  1  0  0  0  0
  5  6  1  0  0  0  0
  5 18  1  0  0  0  0
  6  7  2  0  0  0  0
  6 19  1  0  0  0  0
  7  8  1  0  0  0  0
  7 20  1  0  0  0  0
  8  9  2  0  0  0  0
  8 21  1  0  0  0  0
  9 22  1  0  0  0  0
 10 11  1  0  0  0  0
 10 23  1  0  0  0  0
 10 24  1  0  0  0  0
 11 12  2  0  0  0  0
 11 16  1  0  0  0  0
 12 13  1  0  0  0  0
 12 25  1  0  0  0  0
 13 14  2  0  0  0  0
 13 26  1  0  0  0  0
 14 15  1  0  0  0  0
 14 27  1  0  0  0  0
 15 16  2  0  0  0  0
 15 28  1  0  0  0  0
 16 29  1  0  0  0  0
M  END
$$$$