520694 520693
 OpenBabel01211413223D

 20 20  0  0  0  0  0  0  0  0999 V2000
    2.3348   -2.1761   -0.7733 N   0  0  0  0  0  0  0  0  0  0  0  0
    2.7893   -1.4451    0.2883 C   0  0  0  0  0  0  0  0  0  0  0  0
    3.2638   -1.9969    1.2740 O   0  0  0  0  0  0  0  0  0  0  0  0
    2.6368    0.0321    0.2200 C   0  0  0  0  0  0  0  0  0  0  0  0
    2.5909    0.7529    1.4195 C   0  0  0  0  0  0  0  0  0  0  0  0
    2.4129    2.1399    1.4038 C   0  0  0  0  0  0  0  0  0  0  0  0
    2.2963    2.8205    0.1882 C   0  0  0  0  0  0  0  0  0  0  0  0
    2.3641    2.1027   -1.0108 C   0  0  0  0  0  0  0  0  0  0  0  0
    2.5412    0.7149   -0.9979 C   0  0  0  0  0  0  0  0  0  0  0  0
    1.9950    4.5739    0.1557 S   0  0  0  0  0  0  0  0  0  0  0  0
    3.6872    5.1570    0.2773 C   0  0  0  0  0  0  0  0  0  0  0  0
    3.7373    6.5085    0.1951 F   0  0  0  0  0  0  0  0  0  0  0  0
    4.2578    4.8061    1.4536 F   0  0  0  0  0  0  0  0  0  0  0  0
    4.4621    4.6681   -0.7197 F   0  0  0  0  0  0  0  0  0  0  0  0
    1.7302   -1.7923   -1.4847 H   0  0  0  0  0  0  0  0  0  0  0  0
    2.3469   -3.1823   -0.6614 H   0  0  0  0  0  0  0  0  0  0  0  0
    2.6781    0.2322    2.3721 H   0  0  0  0  0  0  0  0  0  0  0  0
    2.3588    2.6742    2.3501 H   0  0  0  0  0  0  0  0  0  0  0  0
    2.2799    2.6151   -1.9673 H   0  0  0  0  0  0  0  0  0  0  0  0
    2.6177    0.1883   -1.9448 H   0  0  0  0  0  0  0  0  0  0  0  0
  1  2  1  0  0  0  0
  1 15  1  0  0  0  0
  1 16  1  0  0  0  0
  2  4  1  0  0  0  0
  2  3  2  0  0  0  0
  4  5  2  0  0  0  0
  4  9  1  0  0  0  0
  5  6  1  0  0  0  0
  5 17  1  0  0  0  0
  6  7  2  0  0  0  0
  6 18  1  0  0  0  0
  7  8  1  0  0  0  0
  7 10  1  0  0  0  0
  8  9  2  0  0  0  0
  8 19  1  0  0  0  0
  9 20  1  0  0  0  0
 10 11  1  0  0  0  0
 11 14  1  0  0  0  0
 11 13  1  0  0  0  0
 11 12  1  0  0  0  0
M  END
$$$$