1410218 1410217
 OpenBabel01211413433D

 29 31  0  0  1  0  0  0  0  0999 V2000
    1.1564    0.2790    0.5985 O   0  0  0  0  0  0  0  0  0  0  0  0
    2.2438    0.0468    0.1148 C   0  0  0  0  0  0  0  0  0  0  0  0
    3.1895    1.1421   -0.8213 S   0  0  0  0  0  0  0  0  0  0  0  0
    4.3526   -0.2047   -0.5253 C   0  0  0  0  0  0  0  0  0  0  0  0
    3.2289   -1.1831   -0.0251 C   0  0  3  0  0  0  0  0  0  0  0  0
    3.5022   -1.9080    1.3917 C   0  0  0  0  0  0  0  0  0  0  0  0
    2.5268   -2.0255    2.4055 C   0  0  0  0  0  0  0  0  0  0  0  0
    2.7901   -2.6558    3.6263 C   0  0  0  0  0  0  0  0  0  0  0  0
    4.0421   -3.2047    3.8723 C   0  0  0  0  0  0  0  0  0  0  0  0
    5.0269   -3.1284    2.8957 C   0  0  0  0  0  0  0  0  0  0  0  0
    4.7565   -2.4944    1.6794 C   0  0  0  0  0  0  0  0  0  0  0  0
    2.6585   -2.2778   -1.0683 C   0  0  0  0  0  0  0  0  0  0  0  0
    3.5299   -3.0791   -1.8399 C   0  0  0  0  0  0  0  0  0  0  0  0
    3.0622   -4.0346   -2.7477 C   0  0  0  0  0  0  0  0  0  0  0  0
    1.6961   -4.2269   -2.9119 C   0  0  0  0  0  0  0  0  0  0  0  0
    0.8033   -3.4709   -2.1633 C   0  0  0  0  0  0  0  0  0  0  0  0
    1.2791   -2.5192   -1.2552 C   0  0  0  0  0  0  0  0  0  0  0  0
    4.8934   -0.5335   -1.4186 H   0  0  0  0  0  0  0  0  0  0  0  0
    5.1083    0.0445    0.2292 H   0  0  0  0  0  0  0  0  0  0  0  0
    1.5267   -1.6207    2.2493 H   0  0  0  0  0  0  0  0  0  0  0  0
    2.0104   -2.7182    4.3811 H   0  0  0  0  0  0  0  0  0  0  0  0
    4.2470   -3.6965    4.8192 H   0  0  0  0  0  0  0  0  0  0  0  0
    6.0064   -3.5655    3.0758 H   0  0  0  0  0  0  0  0  0  0  0  0
    5.5476   -2.4634    0.9322 H   0  0  0  0  0  0  0  0  0  0  0  0
    4.6062   -2.9646   -1.7279 H   0  0  0  0  0  0  0  0  0  0  0  0
    3.7676   -4.6303   -3.3221 H   0  0  0  0  0  0  0  0  0  0  0  0
    1.3282   -4.9684   -3.6159 H   0  0  0  0  0  0  0  0  0  0  0  0
   -0.2672   -3.6200   -2.2787 H   0  0  0  0  0  0  0  0  0  0  0  0
    0.5441   -1.9577   -0.6783 H   0  0  0  0  0  0  0  0  0  0  0  0
  1  2  2  0  0  0  0
  2  5  1  0  0  0  0
  2  3  1  0  0  0  0
  3  4  1  0  0  0  0
  4  5  1  0  0  0  0
  4 18  1  0  0  0  0
  4 19  1  0  0  0  0
  5 12  1  0  0  0  0
  5  6  1  0  0  0  0
  6  7  2  0  0  0  0
  6 11  1  0  0  0  0
  7  8  1  0  0  0  0
  7 20  1  0  0  0  0
  8  9  2  0  0  0  0
  8 21  1  0  0  0  0
  9 10  1  0  0  0  0
  9 22  1  0  0  0  0
 10 11  2  0  0  0  0
 10 23  1  0  0  0  0
 11 24  1  0  0  0  0
 12 13  2  0  0  0  0
 12 17  1  0  0  0  0
 13 14  1  0  0  0  0
 13 25  1  0  0  0  0
 14 15  2  0  0  0  0
 14 26  1  0  0  0  0
 15 16  1  0  0  0  0
 15 27  1  0  0  0  0
 16 17  2  0  0  0  0
 16 28  1  0  0  0  0
 17 29  1  0  0  0  0
M  END
$$$$