672399 672398
 OpenBabel01211413313D

 63 62  0  0  1  0  0  0  0  0999 V2000
    4.0574    1.9133   -1.9045 C   0  0  0  0  0  0  0  0  0  0  0  0
    3.6446    0.8957   -0.8455 C   0  0  3  0  0  0  0  0  0  0  0  0
    4.6503   -0.1634   -0.7425 N   0  0  0  0  0  0  0  0  0  0  0  0
    4.6147   -1.4532   -1.1753 C   0  0  0  0  0  0  0  0  0  0  0  0
    5.8868   -2.4548   -0.7467 S   0  0  0  0  0  0  0  0  0  0  0  0
    3.5101   -1.8448   -1.8839 N   0  0  0  0  0  0  0  0  0  0  0  0
    3.4329   -3.1420   -2.4297 N   0  0  0  0  0  0  0  0  0  0  0  0
    3.0033   -3.3481   -3.7127 C   0  0  0  0  0  0  0  0  0  0  0  0
    2.4122   -2.1505   -4.7246 S   0  0  0  0  0  0  0  0  0  0  0  0
    3.0085   -4.6286   -4.1766 N   0  0  0  0  0  0  0  0  0  0  0  0
    3.3062   -5.8701   -3.4733 C   0  0  3  0  0  0  0  0  0  0  0  0
    2.1135   -6.3438   -2.6781 C   0  0  0  0  0  0  0  0  0  0  0  0
    0.8731   -5.8344   -2.6490 C   0  0  0  0  0  0  0  0  0  0  0  0
    3.7320   -6.9474   -4.4695 C   0  0  0  0  0  0  0  0  0  0  0  0
    3.3727    1.5300    0.5330 C   0  0  0  0  0  0  0  0  0  0  0  0
    4.5621    2.2637    1.1680 C   0  0  0  0  0  0  0  0  0  0  0  0
    4.2196    2.9245    2.5106 C   0  0  0  0  0  0  0  0  0  0  0  0
    3.8668    1.9197    3.6108 C   0  0  0  0  0  0  0  0  0  0  0  0
    3.6009    2.6190    4.9472 C   0  0  0  0  0  0  0  0  0  0  0  0
    3.3147    1.6411    6.0933 C   0  0  0  0  0  0  0  0  0  0  0  0
    2.0207    0.8450    5.8999 C   0  0  0  0  0  0  0  0  0  0  0  0
    1.6483   -0.0229    7.1064 C   0  0  0  0  0  0  0  0  0  0  0  0
    2.6729   -1.1212    7.4000 C   0  0  0  0  0  0  0  0  0  0  0  0
    2.1682   -2.0805    8.4784 C   0  0  0  0  0  0  0  0  0  0  0  0
    3.2069   -3.1408    8.8084 C   0  0  0  0  0  0  0  0  0  0  0  0
    5.0532    2.3243   -1.7079 H   0  0  0  0  0  0  0  0  0  0  0  0
    3.3436    2.7425   -1.9515 H   0  0  0  0  0  0  0  0  0  0  0  0
    4.0935    1.4433   -2.8936 H   0  0  0  0  0  0  0  0  0  0  0  0
    2.6984    0.4487   -1.1683 H   0  0  0  0  0  0  0  0  0  0  0  0
    5.5120    0.0687   -0.2615 H   0  0  0  0  0  0  0  0  0  0  0  0
    2.9834   -1.1461   -2.4012 H   0  0  0  0  0  0  0  0  0  0  0  0
    3.9720   -3.8458   -1.9357 H   0  0  0  0  0  0  0  0  0  0  0  0
    2.5754   -4.7254   -5.0874 H   0  0  0  0  0  0  0  0  0  0  0  0
    4.1351   -5.6908   -2.7810 H   0  0  0  0  0  0  0  0  0  0  0  0
    2.3071   -7.2119   -2.0478 H   0  0  0  0  0  0  0  0  0  0  0  0
    0.5833   -4.9690   -3.2359 H   0  0  0  0  0  0  0  0  0  0  0  0
    0.1075   -6.2787   -2.0200 H   0  0  0  0  0  0  0  0  0  0  0  0
    2.9433   -7.1498   -5.2041 H   0  0  0  0  0  0  0  0  0  0  0  0
    3.9688   -7.8885   -3.9608 H   0  0  0  0  0  0  0  0  0  0  0  0
    4.6222   -6.6306   -5.0238 H   0  0  0  0  0  0  0  0  0  0  0  0
    3.0374    0.7318    1.2055 H   0  0  0  0  0  0  0  0  0  0  0  0
    2.5350    2.2327    0.4368 H   0  0  0  0  0  0  0  0  0  0  0  0
    4.9114    3.0507    0.4903 H   0  0  0  0  0  0  0  0  0  0  0  0
    5.4006    1.5741    1.3153 H   0  0  0  0  0  0  0  0  0  0  0  0
    3.3907    3.6292    2.3717 H   0  0  0  0  0  0  0  0  0  0  0  0
    5.0865    3.5159    2.8314 H   0  0  0  0  0  0  0  0  0  0  0  0
    4.6869    1.2015    3.7289 H   0  0  0  0  0  0  0  0  0  0  0  0
    2.9773    1.3562    3.3159 H   0  0  0  0  0  0  0  0  0  0  0  0
    2.7608    3.3161    4.8406 H   0  0  0  0  0  0  0  0  0  0  0  0
    4.4778    3.2197    5.2195 H   0  0  0  0  0  0  0  0  0  0  0  0
    3.2461    2.2142    7.0261 H   0  0  0  0  0  0  0  0  0  0  0  0
    4.1666    0.9603    6.1996 H   0  0  0  0  0  0  0  0  0  0  0  0
    2.1007    0.2007    5.0173 H   0  0  0  0  0  0  0  0  0  0  0  0
    1.1954    1.5423    5.7103 H   0  0  0  0  0  0  0  0  0  0  0  0
    0.6732   -0.4837    6.9049 H   0  0  0  0  0  0  0  0  0  0  0  0
    1.5210    0.6105    7.9925 H   0  0  0  0  0  0  0  0  0  0  0  0
    3.6158   -0.6715    7.7313 H   0  0  0  0  0  0  0  0  0  0  0  0
    2.8852   -1.6839    6.4827 H   0  0  0  0  0  0  0  0  0  0  0  0
    1.2497   -2.5718    8.1366 H   0  0  0  0  0  0  0  0  0  0  0  0
    1.9197   -1.5237    9.3890 H   0  0  0  0  0  0  0  0  0  0  0  0
    3.4786   -3.7165    7.9178 H   0  0  0  0  0  0  0  0  0  0  0  0
    2.8144   -3.8366    9.5566 H   0  0  0  0  0  0  0  0  0  0  0  0
    4.1161   -2.6846    9.2132 H   0  0  0  0  0  0  0  0  0  0  0  0
  1  2  1  0  0  0  0
  1 26  1  0  0  0  0
  1 27  1  0  0  0  0
  1 28  1  0  0  0  0
  2 15  1  0  0  0  0
  2  3  1  0  0  0  0
  2 29  1  0  0  0  0
  3  4  1  0  0  0  0
  3 30  1  0  0  0  0
  4  6  1  0  0  0  0
  4  5  2  0  0  0  0
  6  7  1  0  0  0  0
  6 31  1  0  0  0  0
  7  8  1  0  0  0  0
  7 32  1  0  0  0  0
  8 10  1  0  0  0  0
  8  9  2  0  0  0  0
 10 11  1  0  0  0  0
 10 33  1  0  0  0  0
 11 14  1  0  0  0  0
 11 12  1  0  0  0  0
 11 34  1  0  0  0  0
 12 13  2  0  0  0  0
 12 35  1  0  0  0  0
 13 36  1  0  0  0  0
 13 37  1  0  0  0  0
 14 38  1  0  0  0  0
 14 39  1  0  0  0  0
 14 40  1  0  0  0  0
 15 16  1  0  0  0  0
 15 41  1  0  0  0  0
 15 42  1  0  0  0  0
 16 17  1  0  0  0  0
 16 43  1  0  0  0  0
 16 44  1  0  0  0  0
 17 18  1  0  0  0  0
 17 45  1  0  0  0  0
 17 46  1  0  0  0  0
 18 19  1  0  0  0  0
 18 47  1  0  0  0  0
 18 48  1  0  0  0  0
 19 20  1  0  0  0  0
 19 49  1  0  0  0  0
 19 50  1  0  0  0  0
 20 21  1  0  0  0  0
 20 51  1  0  0  0  0
 20 52  1  0  0  0  0
 21 22  1  0  0  0  0
 21 53  1  0  0  0  0
 21 54  1  0  0  0  0
 22 23  1  0  0  0  0
 22 55  1  0  0  0  0
 22 56  1  0  0  0  0
 23 24  1  0  0  0  0
 23 57  1  0  0  0  0
 23 58  1  0  0  0  0
 24 25  1  0  0  0  0
 24 59  1  0  0  0  0
 24 60  1  0  0  0  0
 25 61  1  0  0  0  0
 25 62  1  0  0  0  0
 25 63  1  0  0  0  0
M  END
$$$$