15915078 15915077
 OpenBabel01211414003D

 42 44  0  0  0  0  0  0  0  0999 V2000
    0.6456   -4.8552    0.3881 C   0  0  0  0  0  0  0  0  0  0  0  0
    1.9499   -4.8052    1.1697 C   0  0  0  0  0  0  0  0  0  0  0  0
    3.0845   -4.2429    0.3386 C   0  0  0  0  0  0  0  0  0  0  0  0
    3.8819   -5.1599   -0.3689 C   0  0  0  0  0  0  0  0  0  0  0  0
    4.9606   -4.7269   -1.1304 C   0  0  0  0  0  0  0  0  0  0  0  0
    5.2360   -3.3674   -1.2247 C   0  0  0  0  0  0  0  0  0  0  0  0
    4.4415   -2.4169   -0.5581 C   0  0  0  0  0  0  0  0  0  0  0  0
    3.3873   -2.8605    0.2718 C   0  0  0  0  0  0  0  0  0  0  0  0
    2.5668   -1.9683    1.0035 N   0  0  0  0  0  0  0  0  0  0  0  0
    3.0357   -0.9416    1.8053 C   0  0  0  0  0  0  0  0  0  0  0  0
    4.2103   -0.6612    2.0114 O   0  0  0  0  0  0  0  0  0  0  0  0
    1.9273   -0.2263    2.5437 C   0  0  0  0  0  0  0  0  0  0  0  0
    2.2553    0.2539    3.7585 C   0  0  0  0  0  0  0  0  0  0  0  0
    1.3821    1.0427    4.6410 C   0  0  0  0  0  0  0  0  0  0  0  0
    1.9975    1.9272    5.5431 C   0  0  0  0  0  0  0  0  0  0  0  0
    1.2405    2.6755    6.4489 C   0  0  0  0  0  0  0  0  0  0  0  0
   -0.1436    2.5367    6.4804 C   0  0  0  0  0  0  0  0  0  0  0  0
   -0.7696    1.6533    5.6028 C   0  0  0  0  0  0  0  0  0  0  0  0
   -0.0149    0.9208    4.6777 C   0  0  0  0  0  0  0  0  0  0  0  0
   -0.7374    0.0609    3.8801 O   0  0  0  0  0  0  0  0  0  0  0  0
   -0.5194    0.1273    2.5264 C   0  0  0  0  0  0  0  0  0  0  0  0
    0.6530    0.0059    1.8933 C   0  0  0  0  0  0  0  0  0  0  0  0
    4.7398   -0.9661   -0.8300 C   0  0  0  0  0  0  0  0  0  0  0  0
   -0.1579   -5.2471    1.0196 H   0  0  0  0  0  0  0  0  0  0  0  0
    0.7360   -5.5074   -0.4874 H   0  0  0  0  0  0  0  0  0  0  0  0
    0.3470   -3.8624    0.0357 H   0  0  0  0  0  0  0  0  0  0  0  0
    2.2074   -5.8175    1.5071 H   0  0  0  0  0  0  0  0  0  0  0  0
    1.8220   -4.2265    2.0917 H   0  0  0  0  0  0  0  0  0  0  0  0
    3.6716   -6.2261   -0.3159 H   0  0  0  0  0  0  0  0  0  0  0  0
    5.5785   -5.4461   -1.6611 H   0  0  0  0  0  0  0  0  0  0  0  0
    6.0679   -3.0438   -1.8478 H   0  0  0  0  0  0  0  0  0  0  0  0
    1.6456   -2.3027    1.2499 H   0  0  0  0  0  0  0  0  0  0  0  0
    3.2568    0.0754    4.1488 H   0  0  0  0  0  0  0  0  0  0  0  0
    3.0795    2.0459    5.5455 H   0  0  0  0  0  0  0  0  0  0  0  0
    1.7355    3.3604    7.1330 H   0  0  0  0  0  0  0  0  0  0  0  0
   -0.7341    3.1112    7.1891 H   0  0  0  0  0  0  0  0  0  0  0  0
   -1.8498    1.5369    5.6321 H   0  0  0  0  0  0  0  0  0  0  0  0
   -1.4609    0.2497    2.0063 H   0  0  0  0  0  0  0  0  0  0  0  0
    0.6693    0.0678    0.8074 H   0  0  0  0  0  0  0  0  0  0  0  0
    5.3812   -0.5412   -0.0541 H   0  0  0  0  0  0  0  0  0  0  0  0
    3.8159   -0.3849   -0.9199 H   0  0  0  0  0  0  0  0  0  0  0  0
    5.2684   -0.8485   -1.7846 H   0  0  0  0  0  0  0  0  0  0  0  0
  1  2  1  0  0  0  0
  1 24  1  0  0  0  0
  1 25  1  0  0  0  0
  1 26  1  0  0  0  0
  2  3  1  0  0  0  0
  2 27  1  0  0  0  0
  2 28  1  0  0  0  0
  3  8  1  0  0  0  0
  3  4  2  0  0  0  0
  4  5  1  0  0  0  0
  4 29  1  0  0  0  0
  5  6  2  0  0  0  0
  5 30  1  0  0  0  0
  6  7  1  0  0  0  0
  6 31  1  0  0  0  0
  7  8  2  0  0  0  0
  7 23  1  0  0  0  0
  8  9  1  0  0  0  0
  9 10  1  0  0  0  0
  9 32  1  0  0  0  0
 10 12  1  0  0  0  0
 10 11  2  0  0  0  0
 12 22  1  0  0  0  0
 12 13  2  0  0  0  0
 13 14  1  0  0  0  0
 13 33  1  0  0  0  0
 14 19  1  0  0  0  0
 14 15  2  0  0  0  0
 15 16  1  0  0  0  0
 15 34  1  0  0  0  0
 16 17  2  0  0  0  0
 16 35  1  0  0  0  0
 17 18  1  0  0  0  0
 17 36  1  0  0  0  0
 18 19  2  0  0  0  0
 18 37  1  0  0  0  0
 19 20  1  0  0  0  0
 20 21  1  0  0  0  0
 21 22  2  0  0  0  0
 21 38  1  0  0  0  0
 22 39  1  0  0  0  0
 23 40  1  0  0  0  0
 23 41  1  0  0  0  0
 23 42  1  0  0  0  0
M  END
$$$$