1121818 1121817
 OpenBabel01211413403D

 32 32  0  0  0  0  0  0  0  0999 V2000
    3.7403   -1.1864    0.0851 C   0  0  0  0  0  0  0  0  0  0  0  0
    3.5105    0.3185    0.1293 C   0  0  0  0  0  0  0  0  0  0  0  0
    3.3514    0.9388   -1.1959 N   0  0  0  0  0  0  0  0  0  0  0  0
    2.0420    1.1238   -1.6471 C   0  0  0  0  0  0  0  0  0  0  0  0
    1.0601    0.7828   -0.9783 O   0  0  0  0  0  0  0  0  0  0  0  0
    1.7617    1.7184   -3.0000 C   0  0  0  0  0  0  0  0  0  0  0  0
    2.4836    1.4377   -4.0951 C   0  0  0  0  0  0  0  0  0  0  0  0
    0.5042    2.5470   -3.0694 C   0  0  0  0  0  0  0  0  0  0  0  0
    4.5229    1.5698   -1.7139 C   0  0  0  0  0  0  0  0  0  0  0  0
    5.6893    0.8126   -1.8772 C   0  0  0  0  0  0  0  0  0  0  0  0
    6.8899    1.4117   -2.2605 C   0  0  0  0  0  0  0  0  0  0  0  0
    6.9374    2.7847   -2.4782 C   0  0  0  0  0  0  0  0  0  0  0  0
    5.7784    3.5611   -2.3451 C   0  0  0  0  0  0  0  0  0  0  0  0
    4.5713    2.9468   -1.9600 C   0  0  0  0  0  0  0  0  0  0  0  0
    5.8619    5.0477   -2.5267 C   0  0  0  0  0  0  0  0  0  0  0  0
    3.6104   -1.6121    1.0834 H   0  0  0  0  0  0  0  0  0  0  0  0
    4.7591   -1.4285   -0.2303 H   0  0  0  0  0  0  0  0  0  0  0  0
    3.0462   -1.6802   -0.5993 H   0  0  0  0  0  0  0  0  0  0  0  0
    4.3277    0.8102    0.6741 H   0  0  0  0  0  0  0  0  0  0  0  0
    2.6110    0.5074    0.7257 H   0  0  0  0  0  0  0  0  0  0  0  0
    3.3420    0.7791   -4.0685 H   0  0  0  0  0  0  0  0  0  0  0  0
    2.2131    1.8473   -5.0662 H   0  0  0  0  0  0  0  0  0  0  0  0
    0.5555    3.3806   -2.3622 H   0  0  0  0  0  0  0  0  0  0  0  0
   -0.3685    1.9371   -2.8248 H   0  0  0  0  0  0  0  0  0  0  0  0
    0.3410    2.9640   -4.0672 H   0  0  0  0  0  0  0  0  0  0  0  0
    5.6792   -0.2624   -1.7358 H   0  0  0  0  0  0  0  0  0  0  0  0
    7.7847    0.8075   -2.3764 H   0  0  0  0  0  0  0  0  0  0  0  0
    7.8824    3.2468   -2.7474 H   0  0  0  0  0  0  0  0  0  0  0  0
    3.6890    3.5613   -1.8008 H   0  0  0  0  0  0  0  0  0  0  0  0
    4.8941    5.4670   -2.8087 H   0  0  0  0  0  0  0  0  0  0  0  0
    6.5730    5.2986   -3.3198 H   0  0  0  0  0  0  0  0  0  0  0  0
    6.1947    5.5173   -1.5945 H   0  0  0  0  0  0  0  0  0  0  0  0
  1  2  1  0  0  0  0
  1 16  1  0  0  0  0
  1 17  1  0  0  0  0
  1 18  1  0  0  0  0
  2  3  1  0  0  0  0
  2 19  1  0  0  0  0
  2 20  1  0  0  0  0
  3  9  1  0  0  0  0
  3  4  1  0  0  0  0
  4  6  1  0  0  0  0
  4  5  2  0  0  0  0
  6  8  1  0  0  0  0
  6  7  2  0  0  0  0
  7 21  1  0  0  0  0
  7 22  1  0  0  0  0
  8 23  1  0  0  0  0
  8 24  1  0  0  0  0
  8 25  1  0  0  0  0
  9 10  2  0  0  0  0
  9 14  1  0  0  0  0
 10 11  1  0  0  0  0
 10 26  1  0  0  0  0
 11 12  2  0  0  0  0
 11 27  1  0  0  0  0
 12 13  1  0  0  0  0
 12 28  1  0  0  0  0
 13 14  2  0  0  0  0
 13 15  1  0  0  0  0
 14 29  1  0  0  0  0
 15 30  1  0  0  0  0
 15 31  1  0  0  0  0
 15 32  1  0  0  0  0
M  END
$$$$