496782 496781
 OpenBabel01211413193D

 16 16  0  0  0  0  0  0  0  0999 V2000
    1.1790   -0.2057    0.0802 O   0  0  0  0  0  0  0  0  0  0  0  0
    2.3508   -0.1416    0.1506 C   0  0  0  0  0  0  0  0  0  0  0  0
    3.5164   -0.0373    0.1969 N   0  0  0  0  0  0  0  0  0  0  0  0
    4.1649   -1.0640    0.8327 C   0  0  0  0  0  0  0  0  0  0  0  0
    3.6240   -2.0374    1.3479 O   0  0  0  0  0  0  0  0  0  0  0  0
    5.6572   -0.9526    0.8824 C   0  0  0  0  0  0  0  0  0  0  0  0
    6.3958   -1.9636    1.5140 C   0  0  0  0  0  0  0  0  0  0  0  0
    7.7887   -1.8857    1.5742 C   0  0  0  0  0  0  0  0  0  0  0  0
    8.4514   -0.7994    1.0051 C   0  0  0  0  0  0  0  0  0  0  0  0
    7.7251    0.2106    0.3752 C   0  0  0  0  0  0  0  0  0  0  0  0
    6.3312    0.1371    0.3124 C   0  0  0  0  0  0  0  0  0  0  0  0
    5.8911   -2.8176    1.9625 H   0  0  0  0  0  0  0  0  0  0  0  0
    8.3558   -2.6730    2.0653 H   0  0  0  0  0  0  0  0  0  0  0  0
    9.5363   -0.7399    1.0525 H   0  0  0  0  0  0  0  0  0  0  0  0
    8.2453    1.0568   -0.0678 H   0  0  0  0  0  0  0  0  0  0  0  0
    5.7886    0.9375   -0.1843 H   0  0  0  0  0  0  0  0  0  0  0  0
  1  2  2  0  0  0  0
  2  3  2  0  0  0  0
  3  4  1  0  0  0  0
  4  6  1  0  0  0  0
  4  5  2  0  0  0  0
  6  7  2  0  0  0  0
  6 11  1  0  0  0  0
  7  8  1  0  0  0  0
  7 12  1  0  0  0  0
  8  9  2  0  0  0  0
  8 13  1  0  0  0  0
  9 10  1  0  0  0  0
  9 14  1  0  0  0  0
 10 11  2  0  0  0  0
 10 15  1  0  0  0  0
 11 16  1  0  0  0  0
M  END
$$$$