710343 710342
 OpenBabel01211413323D

 27 28  0  0  0  0  0  0  0  0999 V2000
    0.9098    2.2405   -0.0908 N   0  0  0  0  0  0  0  0  0  0  0  0
    2.3457    1.9886   -0.2215 C   0  0  0  0  0  0  0  0  0  0  0  0
    2.8620    1.1794    0.9754 C   0  0  0  0  0  0  0  0  0  0  0  0
    4.3196    0.8865    0.8937 C   0  0  0  0  0  0  0  0  0  0  0  0
    5.3269    1.9771    0.9060 C   0  0  0  0  0  0  0  0  0  0  0  0
    5.0882    3.1690    0.9767 O   0  0  0  0  0  0  0  0  0  0  0  0
    6.5756    1.3989    0.8754 O   0  0  0  0  0  0  0  0  0  0  0  0
    6.3882    0.0164    0.7643 N   0  0  0  0  0  0  0  0  0  0  0  0
    6.9640   -0.5320    1.4040 H   0  0  0  0  0  0  0  0  0  0  0  0
    5.0397   -0.2446    0.8761 C   0  0  0  0  0  0  0  0  0  0  0  0
    4.5845   -1.6395    0.9705 C   0  0  0  0  0  0  0  0  0  0  0  0
    3.5915   -2.0327    1.8784 C   0  0  0  0  0  0  0  0  0  0  0  0
    3.1988   -3.3709    1.9746 C   0  0  0  0  0  0  0  0  0  0  0  0
    3.8098   -4.3377    1.1799 C   0  0  0  0  0  0  0  0  0  0  0  0
    4.8125   -3.9682    0.2875 C   0  0  0  0  0  0  0  0  0  0  0  0
    5.1963   -2.6288    0.1836 C   0  0  0  0  0  0  0  0  0  0  0  0
    0.5962    2.7883   -0.8923 H   0  0  0  0  0  0  0  0  0  0  0  0
    0.7444    2.8302    0.7255 H   0  0  0  0  0  0  0  0  0  0  0  0
    2.8617    2.9505   -0.3037 H   0  0  0  0  0  0  0  0  0  0  0  0
    2.5244    1.4374   -1.1515 H   0  0  0  0  0  0  0  0  0  0  0  0
    2.2841    0.2511    1.0345 H   0  0  0  0  0  0  0  0  0  0  0  0
    2.6655    1.7267    1.9062 H   0  0  0  0  0  0  0  0  0  0  0  0
    3.1161   -1.3070    2.5337 H   0  0  0  0  0  0  0  0  0  0  0  0
    2.4189   -3.6579    2.6756 H   0  0  0  0  0  0  0  0  0  0  0  0
    3.5073   -5.3787    1.2589 H   0  0  0  0  0  0  0  0  0  0  0  0
    5.2967   -4.7209   -0.3294 H   0  0  0  0  0  0  0  0  0  0  0  0
    5.9784   -2.3619   -0.5250 H   0  0  0  0  0  0  0  0  0  0  0  0
  1  2  1  0  0  0  0
  1 17  1  0  0  0  0
  1 18  1  0  0  0  0
  2  3  1  0  0  0  0
  2 19  1  0  0  0  0
  2 20  1  0  0  0  0
  3  4  1  0  0  0  0
  3 21  1  0  0  0  0
  3 22  1  0  0  0  0
  4  5  1  0  0  0  0
  4 10  2  0  0  0  0
  5  7  1  0  0  0  0
  5  6  2  0  0  0  0
  7  8  1  0  0  0  0
  8 10  1  0  0  0  0
  8  9  1  0  0  0  0
 10 11  1  0  0  0  0
 11 12  2  0  0  0  0
 11 16  1  0  0  0  0
 12 13  1  0  0  0  0
 12 23  1  0  0  0  0
 13 14  2  0  0  0  0
 13 24  1  0  0  0  0
 14 15  1  0  0  0  0
 14 25  1  0  0  0  0
 15 16  2  0  0  0  0
 15 26  1  0  0  0  0
 16 27  1  0  0  0  0
M  END
$$$$