18918241 18918240
 OpenBabel01211414013D

 36 38  0  0  0  0  0  0  0  0999 V2000
    1.4751   -1.5967   -0.7697 O   0  0  0  0  0  0  0  0  0  0  0  0
    1.6248   -0.5947   -0.0739 C   0  0  0  0  0  0  0  0  0  0  0  0
    0.6518   -0.1848    0.9361 C   0  0  0  0  0  0  0  0  0  0  0  0
    0.7583    0.7836    1.9844 C   0  0  0  0  0  0  0  0  0  0  0  0
   -0.4420    0.7788    2.6593 C   0  0  0  0  0  0  0  0  0  0  0  0
   -1.2861   -0.1264    2.1009 O   0  0  0  0  0  0  0  0  0  0  0  0
   -0.6232   -0.7134    1.0670 C   0  0  0  0  0  0  0  0  0  0  0  0
   -1.3724   -1.7487    0.3207 C   0  0  0  0  0  0  0  0  0  0  0  0
   -0.9610    1.5312    3.8187 C   0  0  0  0  0  0  0  0  0  0  0  0
    2.7083    0.2473   -0.1779 N   0  0  0  0  0  0  0  0  0  0  0  0
    3.7665    0.0484   -1.1415 C   0  0  0  0  0  0  0  0  0  0  0  0
    3.6666    1.1266   -2.1904 C   0  0  0  0  0  0  0  0  0  0  0  0
    3.9183    0.7963   -3.6426 C   0  0  0  0  0  0  0  0  0  0  0  0
    2.5290    1.1366   -3.1835 C   0  0  0  0  0  0  0  0  0  0  0  0
    5.0806    0.1273   -0.4055 C   0  0  0  0  0  0  0  0  0  0  0  0
    5.8087   -1.1370   -0.0191 C   0  0  0  0  0  0  0  0  0  0  0  0
    6.3768   -0.2415   -1.0842 C   0  0  0  0  0  0  0  0  0  0  0  0
    1.6076    1.4018    2.2347 H   0  0  0  0  0  0  0  0  0  0  0  0
   -0.8931   -2.7257    0.4363 H   0  0  0  0  0  0  0  0  0  0  0  0
   -1.4103   -1.5019   -0.7447 H   0  0  0  0  0  0  0  0  0  0  0  0
   -2.4022   -1.8321    0.6834 H   0  0  0  0  0  0  0  0  0  0  0  0
   -0.1451    2.0005    4.3776 H   0  0  0  0  0  0  0  0  0  0  0  0
   -1.5015    0.8690    4.5021 H   0  0  0  0  0  0  0  0  0  0  0  0
   -1.6447    2.3181    3.4864 H   0  0  0  0  0  0  0  0  0  0  0  0
    2.6978    1.1233    0.3227 H   0  0  0  0  0  0  0  0  0  0  0  0
    3.6556   -0.9384   -1.6086 H   0  0  0  0  0  0  0  0  0  0  0  0
    4.0110    2.0903   -1.8300 H   0  0  0  0  0  0  0  0  0  0  0  0
    4.1154   -0.2339   -3.9194 H   0  0  0  0  0  0  0  0  0  0  0  0
    4.4498    1.5240   -4.2451 H   0  0  0  0  0  0  0  0  0  0  0  0
    2.1187    2.0965   -3.4757 H   0  0  0  0  0  0  0  0  0  0  0  0
    1.7976    0.3364   -3.1422 H   0  0  0  0  0  0  0  0  0  0  0  0
    5.1228    0.9642    0.2843 H   0  0  0  0  0  0  0  0  0  0  0  0
    5.3975   -2.0916   -0.3299 H   0  0  0  0  0  0  0  0  0  0  0  0
    6.3036   -1.1638    0.9446 H   0  0  0  0  0  0  0  0  0  0  0  0
    7.2570    0.3431   -0.8394 H   0  0  0  0  0  0  0  0  0  0  0  0
    6.3468   -0.5861   -2.1113 H   0  0  0  0  0  0  0  0  0  0  0  0
  1  2  2  0  0  0  0
  2 10  1  0  0  0  0
  2  3  1  0  0  0  0
  3  4  1  0  0  0  0
  3  7  2  0  0  0  0
  4  5  2  0  0  0  0
  4 18  1  0  0  0  0
  5  6  1  0  0  0  0
  5  9  1  0  0  0  0
  6  7  1  0  0  0  0
  7  8  1  0  0  0  0
  8 19  1  0  0  0  0
  8 20  1  0  0  0  0
  8 21  1  0  0  0  0
  9 22  1  0  0  0  0
  9 23  1  0  0  0  0
  9 24  1  0  0  0  0
 10 11  1  0  0  0  0
 10 25  1  0  0  0  0
 11 15  1  0  0  0  0
 11 12  1  0  0  0  0
 11 26  1  0  0  0  0
 12 14  1  0  0  0  0
 12 13  1  0  0  0  0
 12 27  1  0  0  0  0
 13 14  1  0  0  0  0
 13 28  1  0  0  0  0
 13 29  1  0  0  0  0
 14 30  1  0  0  0  0
 14 31  1  0  0  0  0
 15 17  1  0  0  0  0
 15 16  1  0  0  0  0
 15 32  1  0  0  0  0
 16 17  1  0  0  0  0
 16 33  1  0  0  0  0
 16 34  1  0  0  0  0
 17 35  1  0  0  0  0
 17 36  1  0  0  0  0
M  END
$$$$