720148 720147
 OpenBabel01211413323D

 15 16  0  0  0  0  0  0  0  0999 V2000
    1.3975   -0.1875    1.0178 O   0  0  0  0  0  0  0  0  0  0  0  0
    2.2205    0.0336    0.1427 C   0  0  0  0  0  0  0  0  0  0  0  0
    2.8459   -1.0048   -0.6908 C   0  0  0  0  0  0  0  0  0  0  0  0
    3.7879   -0.6279   -1.6752 C   0  0  0  0  0  0  0  0  0  0  0  0
    4.4360   -1.5596   -2.5189 C   0  0  0  0  0  0  0  0  0  0  0  0
    4.1998   -2.9427   -2.4523 C   0  0  0  0  0  0  0  0  0  0  0  0
    3.2635   -3.3775   -1.4822 C   0  0  0  0  0  0  0  0  0  0  0  0
    2.5614   -2.3905   -0.5713 C   0  0  0  0  0  0  0  0  0  0  0  0
    1.7159   -3.0030    0.2739 N   0  0  0  0  0  0  0  0  0  0  0  0
    1.7929   -4.6269   -0.0379 S   0  0  0  0  0  0  0  0  0  0  0  0
    2.9069   -4.6526   -1.2679 N   0  0  0  0  0  0  0  0  0  0  0  0
    2.5422    1.0674   -0.0670 H   0  0  0  0  0  0  0  0  0  0  0  0
    4.0367    0.4267   -1.8017 H   0  0  0  0  0  0  0  0  0  0  0  0
    5.1515   -1.1899   -3.2548 H   0  0  0  0  0  0  0  0  0  0  0  0
    4.7030   -3.6466   -3.1045 H   0  0  0  0  0  0  0  0  0  0  0  0
  1  2  2  0  0  0  0
  2  3  1  0  0  0  0
  2 12  1  0  0  0  0
  3  4  2  0  0  0  0
  3  8  1  0  0  0  0
  4  5  1  0  0  0  0
  4 13  1  0  0  0  0
  5  6  2  0  0  0  0
  5 14  1  0  0  0  0
  6  7  1  0  0  0  0
  6 15  1  0  0  0  0
  7 11  2  0  0  0  0
  7  8  1  0  0  0  0
  8  9  2  0  0  0  0
  9 10  1  0  0  0  0
 10 11  1  0  0  0  0
M  END
$$$$