8203177 8203176
 OpenBabel01211413583D

 64 68  0  0  0  0  0  0  0  0999 V2000
    8.7627   -3.4305    7.0117 C   0  0  0  0  0  0  0  0  0  0  0  0
    9.8469   -2.4437    6.6193 C   0  0  0  0  0  0  0  0  0  0  0  0
   10.5876   -2.7317    5.3065 C   0  0  0  0  0  0  0  0  0  0  0  0
   11.0234   -4.1810    5.0835 C   0  0  0  0  0  0  0  0  0  0  0  0
    9.6693   -5.2269    4.4485 S   0  0  0  0  0  0  0  0  0  0  0  0
    9.5462   -4.6151    2.8841 C   0  0  0  0  0  0  0  0  0  0  0  0
   10.4981   -4.1339    2.1681 N   0  0  0  0  0  0  0  0  0  0  0  0
    9.9310   -3.9310    0.9348 C   0  0  0  0  0  0  0  0  0  0  0  0
    8.6896   -4.3030    0.8355 N   0  0  0  0  0  0  0  0  0  0  0  0
    8.2730   -4.6736    2.1372 C   0  0  0  0  0  0  0  0  0  0  0  0
    6.6436   -4.7303    2.1689 P   0  0  3  0  0  0  0  0  0  0  0  0
    6.7958   -6.4393    2.9711 C   0  0  0  0  0  0  0  0  0  0  0  0
    6.8165   -7.5504    2.1009 C   0  0  0  0  0  0  0  0  0  0  0  0
    6.8459   -8.8543    2.5964 C   0  0  0  0  0  0  0  0  0  0  0  0
    6.9602   -9.0681    3.9656 C   0  0  0  0  0  0  0  0  0  0  0  0
    6.9933   -7.9795    4.8345 C   0  0  0  0  0  0  0  0  0  0  0  0
    6.8605   -6.6758    4.3461 C   0  0  0  0  0  0  0  0  0  0  0  0
    6.7624   -3.2564    3.4167 C   0  0  0  0  0  0  0  0  0  0  0  0
    7.3799   -2.0674    2.9640 C   0  0  0  0  0  0  0  0  0  0  0  0
    7.3828   -0.9135    3.7467 C   0  0  0  0  0  0  0  0  0  0  0  0
    6.7109   -0.9034    4.9644 C   0  0  0  0  0  0  0  0  0  0  0  0
    6.0570   -2.0534    5.4073 C   0  0  0  0  0  0  0  0  0  0  0  0
    6.1005   -3.2333    4.6539 C   0  0  0  0  0  0  0  0  0  0  0  0
    4.8530   -4.7926    2.2037 C   0  0  0  0  0  0  0  0  0  0  0  0
    4.1104   -5.8849    1.7173 C   0  0  0  0  0  0  0  0  0  0  0  0
    2.7042   -5.9160    1.7165 C   0  0  0  0  0  0  0  0  0  0  0  0
    1.9751   -4.8289    2.1730 C   0  0  0  0  0  0  0  0  0  0  0  0
    2.6554   -3.6871    2.5507 C   0  0  0  0  0  0  0  0  0  0  0  0
    4.0562   -3.6632    2.5067 C   0  0  0  0  0  0  0  0  0  0  0  0
   10.7401   -3.3014   -0.1282 C   0  0  0  0  0  0  0  0  0  0  0  0
   10.2807   -3.2617   -1.4471 C   0  0  0  0  0  0  0  0  0  0  0  0
   11.0431   -2.6208   -2.4291 C   0  0  0  0  0  0  0  0  0  0  0  0
   12.2538   -2.0098   -2.0950 C   0  0  0  0  0  0  0  0  0  0  0  0
   12.7113   -2.0421   -0.7791 C   0  0  0  0  0  0  0  0  0  0  0  0
   11.9590   -2.6895    0.2014 C   0  0  0  0  0  0  0  0  0  0  0  0
    8.1269   -3.0114    7.7964 H   0  0  0  0  0  0  0  0  0  0  0  0
    9.1899   -4.3629    7.3915 H   0  0  0  0  0  0  0  0  0  0  0  0
    8.1182   -3.6739    6.1725 H   0  0  0  0  0  0  0  0  0  0  0  0
   10.5773   -2.3946    7.4349 H   0  0  0  0  0  0  0  0  0  0  0  0
    9.4054   -1.4431    6.5414 H   0  0  0  0  0  0  0  0  0  0  0  0
   11.4894   -2.1047    5.3085 H   0  0  0  0  0  0  0  0  0  0  0  0
    9.9943   -2.3701    4.4594 H   0  0  0  0  0  0  0  0  0  0  0  0
   11.3989   -4.6140    6.0159 H   0  0  0  0  0  0  0  0  0  0  0  0
   11.8577   -4.2101    4.3726 H   0  0  0  0  0  0  0  0  0  0  0  0
    6.7561   -7.3959    1.0252 H   0  0  0  0  0  0  0  0  0  0  0  0
    6.7854   -9.6987    1.9147 H   0  0  0  0  0  0  0  0  0  0  0  0
    7.0283  -10.0799    4.3568 H   0  0  0  0  0  0  0  0  0  0  0  0
    7.1266   -8.1433    5.9005 H   0  0  0  0  0  0  0  0  0  0  0  0
    6.8775   -5.8581    5.0558 H   0  0  0  0  0  0  0  0  0  0  0  0
    7.8514   -2.0281    1.9844 H   0  0  0  0  0  0  0  0  0  0  0  0
    7.8893   -0.0191    3.3925 H   0  0  0  0  0  0  0  0  0  0  0  0
    6.6860    0.0034    5.5629 H   0  0  0  0  0  0  0  0  0  0  0  0
    5.5051   -2.0326    6.3437 H   0  0  0  0  0  0  0  0  0  0  0  0
    5.5426   -4.0978    5.0023 H   0  0  0  0  0  0  0  0  0  0  0  0
    4.6013   -6.7518    1.2930 H   0  0  0  0  0  0  0  0  0  0  0  0
    2.1851   -6.7963    1.3467 H   0  0  0  0  0  0  0  0  0  0  0  0
    0.8900   -4.8553    2.1955 H   0  0  0  0  0  0  0  0  0  0  0  0
    2.1115   -2.7996    2.8653 H   0  0  0  0  0  0  0  0  0  0  0  0
    4.5047   -2.6970    2.7213 H   0  0  0  0  0  0  0  0  0  0  0  0
    9.3341   -3.7246   -1.7123 H   0  0  0  0  0  0  0  0  0  0  0  0
   10.6910   -2.5923   -3.4569 H   0  0  0  0  0  0  0  0  0  0  0  0
   12.8389   -1.5053   -2.8604 H   0  0  0  0  0  0  0  0  0  0  0  0
   13.6493   -1.5614   -0.5132 H   0  0  0  0  0  0  0  0  0  0  0  0
   12.3213   -2.6987    1.2268 H   0  0  0  0  0  0  0  0  0  0  0  0
  1  2  1  0  0  0  0
  1 36  1  0  0  0  0
  1 37  1  0  0  0  0
  1 38  1  0  0  0  0
  2  3  1  0  0  0  0
  2 39  1  0  0  0  0
  2 40  1  0  0  0  0
  3  4  1  0  0  0  0
  3 41  1  0  0  0  0
  3 42  1  0  0  0  0
  4  5  1  0  0  0  0
  4 43  1  0  0  0  0
  4 44  1  0  0  0  0
  5  6  1  0  0  0  0
  6  7  2  0  0  0  0
  6 10  1  0  0  0  0
  7  8  1  0  0  0  0
  8  9  2  0  0  0  0
  8 30  1  0  0  0  0
  9 10  1  0  0  0  0
 10 11  2  0  0  0  0
 11 24  1  0  0  0  0
 11 18  1  0  0  0  0
 11 12  1  0  0  0  0
 12 13  2  0  0  0  0
 12 17  1  0  0  0  0
 13 14  1  0  0  0  0
 13 45  1  0  0  0  0
 14 15  2  0  0  0  0
 14 46  1  0  0  0  0
 15 16  1  0  0  0  0
 15 47  1  0  0  0  0
 16 17  2  0  0  0  0
 16 48  1  0  0  0  0
 17 49  1  0  0  0  0
 18 19  2  0  0  0  0
 18 23  1  0  0  0  0
 19 20  1  0  0  0  0
 19 50  1  0  0  0  0
 20 21  2  0  0  0  0
 20 51  1  0  0  0  0
 21 22  1  0  0  0  0
 21 52  1  0  0  0  0
 22 23  2  0  0  0  0
 22 53  1  0  0  0  0
 23 54  1  0  0  0  0
 24 25  2  0  0  0  0
 24 29  1  0  0  0  0
 25 26  1  0  0  0  0
 25 55  1  0  0  0  0
 26 27  2  0  0  0  0
 26 56  1  0  0  0  0
 27 28  1  0  0  0  0
 27 57  1  0  0  0  0
 28 29  2  0  0  0  0
 28 58  1  0  0  0  0
 29 59  1  0  0  0  0
 30 31  2  0  0  0  0
 30 35  1  0  0  0  0
 31 32  1  0  0  0  0
 31 60  1  0  0  0  0
 32 33  2  0  0  0  0
 32 61  1  0  0  0  0
 33 34  1  0  0  0  0
 33 62  1  0  0  0  0
 34 35  2  0  0  0  0
 34 63  1  0  0  0  0
 35 64  1  0  0  0  0
M  END
$$$$