31430295 31430294
 OpenBabel01211414073D

 15 15  0  0  0  0  0  0  0  0999 V2000
    1.2565    0.7403    0.5558 C   0  0  0  0  0  0  0  0  0  0  0  0
    1.6710   -0.4245    0.0399 C   0  0  0  0  0  0  0  0  0  0  0  0
    2.8108   -1.1669    0.6571 C   0  0  0  0  0  0  0  0  0  0  0  0
    4.0127   -0.3569    0.7628 O   0  0  0  0  0  0  0  0  0  0  0  0
    2.4339   -1.9651    1.9352 C   0  0  0  0  0  0  0  0  0  0  0  0
    3.0621   -3.1653    1.4076 O   0  0  0  0  0  0  0  0  0  0  0  0
    3.0364   -2.5904    0.0733 C   0  0  0  0  0  0  0  0  0  0  0  0
    0.4365    1.2885    0.1035 H   0  0  0  0  0  0  0  0  0  0  0  0
    1.7383    1.1840    1.4225 H   0  0  0  0  0  0  0  0  0  0  0  0
    1.1877   -0.8345   -0.8412 H   0  0  0  0  0  0  0  0  0  0  0  0
    4.6661   -0.9481    1.1774 H   0  0  0  0  0  0  0  0  0  0  0  0
    1.3676   -2.1276    2.1266 H   0  0  0  0  0  0  0  0  0  0  0  0
    2.9220   -1.6305    2.8556 H   0  0  0  0  0  0  0  0  0  0  0  0
    3.9895   -2.7377   -0.4432 H   0  0  0  0  0  0  0  0  0  0  0  0
    2.2279   -3.0214   -0.5267 H   0  0  0  0  0  0  0  0  0  0  0  0
  1  2  2  0  0  0  0
  1  8  1  0  0  0  0
  1  9  1  0  0  0  0
  2  3  1  0  0  0  0
  2 10  1  0  0  0  0
  3  7  1  0  0  0  0
  3  5  1  0  0  0  0
  3  4  1  0  0  0  0
  4 11  1  0  0  0  0
  5  6  1  0  0  0  0
  5 12  1  0  0  0  0
  5 13  1  0  0  0  0
  6  7  1  0  0  0  0
  7 14  1  0  0  0  0
  7 15  1  0  0  0  0
M  END
$$$$