544444 544443
 OpenBabel01211413243D

 42 44  0  0  1  0  0  0  0  0999 V2000
    8.4403    2.8853    6.4190 O   0  0  0  0  0  0  0  0  0  0  0  0
    9.1811    1.9070    5.6870 C   0  0  0  0  0  0  0  0  0  0  0  0
    8.5862    1.7314    4.2933 C   0  0  0  0  0  0  0  0  0  0  0  0
    8.6726    2.9611    3.5266 N   0  0  0  0  0  0  0  0  0  0  0  0
    8.1904    2.9936    2.2430 C   0  0  0  0  0  0  0  0  0  0  0  0
    7.7361    2.0184    1.6636 O   0  0  0  0  0  0  0  0  0  0  0  0
    8.2588    4.2510    1.7176 N   0  0  0  0  0  0  0  0  0  0  0  0
    7.8265    4.5412    0.3610 C   0  0  3  0  0  0  0  0  0  0  0  0
    7.1283    5.9015    0.3278 C   0  0  0  0  0  0  0  0  0  0  0  0
    5.7591    5.8832    0.7024 C   0  0  0  0  0  0  0  0  0  0  0  0
    4.9798    7.0377    0.7353 C   0  0  0  0  0  0  0  0  0  0  0  0
    5.5502    8.2528    0.3994 C   0  0  0  0  0  0  0  0  0  0  0  0
    6.8970    8.3042    0.0466 C   0  0  0  0  0  0  0  0  0  0  0  0
    7.7129    7.1476    0.0224 C   0  0  0  0  0  0  0  0  0  0  0  0
    9.1459    7.3878   -0.4021 C   0  0  0  0  0  0  0  0  0  0  0  0
   10.1957    6.3602   -0.0051 C   0  0  0  0  0  0  0  0  0  0  0  0
   10.0491    5.1017   -0.8127 C   0  0  0  0  0  0  0  0  0  0  0  0
    8.9236    4.2748   -0.6605 C   0  0  0  0  0  0  0  0  0  0  0  0
    8.8315    3.1176   -1.4617 C   0  0  0  0  0  0  0  0  0  0  0  0
    9.8104    2.8053   -2.4052 C   0  0  0  0  0  0  0  0  0  0  0  0
   10.9110    3.6376   -2.5587 C   0  0  0  0  0  0  0  0  0  0  0  0
   11.0322    4.7764   -1.7652 C   0  0  0  0  0  0  0  0  0  0  0  0
    7.5446    2.5278    6.5530 H   0  0  0  0  0  0  0  0  0  0  0  0
    9.1565    0.9657    6.2444 H   0  0  0  0  0  0  0  0  0  0  0  0
   10.2186    2.2506    5.6293 H   0  0  0  0  0  0  0  0  0  0  0  0
    7.5256    1.4640    4.3629 H   0  0  0  0  0  0  0  0  0  0  0  0
    9.1090    0.9414    3.7439 H   0  0  0  0  0  0  0  0  0  0  0  0
    8.5420    3.8135    4.0558 H   0  0  0  0  0  0  0  0  0  0  0  0
    8.9148    4.8821    2.1429 H   0  0  0  0  0  0  0  0  0  0  0  0
    7.0364    3.8131    0.1263 H   0  0  0  0  0  0  0  0  0  0  0  0
    5.2866    4.9392    0.9760 H   0  0  0  0  0  0  0  0  0  0  0  0
    3.9327    6.9813    1.0189 H   0  0  0  0  0  0  0  0  0  0  0  0
    4.9535    9.1605    0.4108 H   0  0  0  0  0  0  0  0  0  0  0  0
    7.3213    9.2725   -0.2172 H   0  0  0  0  0  0  0  0  0  0  0  0
    9.4677    8.3407    0.0409 H   0  0  0  0  0  0  0  0  0  0  0  0
    9.1542    7.5290   -1.4915 H   0  0  0  0  0  0  0  0  0  0  0  0
   10.1694    6.1426    1.0666 H   0  0  0  0  0  0  0  0  0  0  0  0
   11.1878    6.7940   -0.1876 H   0  0  0  0  0  0  0  0  0  0  0  0
    7.9886    2.4374   -1.3437 H   0  0  0  0  0  0  0  0  0  0  0  0
    9.7123    1.9095   -3.0124 H   0  0  0  0  0  0  0  0  0  0  0  0
   11.6758    3.4000   -3.2929 H   0  0  0  0  0  0  0  0  0  0  0  0
   11.9007    5.4174   -1.9014 H   0  0  0  0  0  0  0  0  0  0  0  0
  1  2  1  0  0  0  0
  1 23  1  0  0  0  0
  2  3  1  0  0  0  0
  2 24  1  0  0  0  0
  2 25  1  0  0  0  0
  3  4  1  0  0  0  0
  3 26  1  0  0  0  0
  3 27  1  0  0  0  0
  4  5  1  0  0  0  0
  4 28  1  0  0  0  0
  5  7  1  0  0  0  0
  5  6  2  0  0  0  0
  7  8  1  0  0  0  0
  7 29  1  0  0  0  0
  8 18  1  0  0  0  0
  8  9  1  0  0  0  0
  8 30  1  0  0  0  0
  9 14  1  0  0  0  0
  9 10  2  0  0  0  0
 10 11  1  0  0  0  0
 10 31  1  0  0  0  0
 11 12  2  0  0  0  0
 11 32  1  0  0  0  0
 12 13  1  0  0  0  0
 12 33  1  0  0  0  0
 13 14  2  0  0  0  0
 13 34  1  0  0  0  0
 14 15  1  0  0  0  0
 15 16  1  0  0  0  0
 15 35  1  0  0  0  0
 15 36  1  0  0  0  0
 16 17  1  0  0  0  0
 16 37  1  0  0  0  0
 16 38  1  0  0  0  0
 17 22  1  0  0  0  0
 17 18  2  0  0  0  0
 18 19  1  0  0  0  0
 19 20  2  0  0  0  0
 19 39  1  0  0  0  0
 20 21  1  0  0  0  0
 20 40  1  0  0  0  0
 21 22  2  0  0  0  0
 21 41  1  0  0  0  0
 22 42  1  0  0  0  0
M  END
$$$$