2327082 2327081
 OpenBabel01211413483D

 59 64  0  0  0  0  0  0  0  0999 V2000
   15.9777    0.0330    2.3814 C   0  0  0  0  0  0  0  0  0  0  0  0
   14.4281    0.0837    2.4078 C   0  0  0  0  0  0  0  0  0  0  0  0
   13.9809    0.0885    0.9328 C   0  0  0  0  0  0  0  0  0  0  0  0
   13.9337   -1.1056    3.2185 C   0  0  0  0  0  0  0  0  0  0  0  0
   12.6553   -1.3430    3.5985 C   0  0  0  0  0  0  0  0  0  0  0  0
   12.4358   -2.3754    4.6675 C   0  0  0  0  0  0  0  0  0  0  0  0
   11.4129   -2.1885    5.6110 C   0  0  0  0  0  0  0  0  0  0  0  0
   11.1661   -3.1417    6.6041 C   0  0  0  0  0  0  0  0  0  0  0  0
   11.9417   -4.2957    6.6763 C   0  0  0  0  0  0  0  0  0  0  0  0
   12.9579   -4.5032    5.7482 C   0  0  0  0  0  0  0  0  0  0  0  0
   13.1953   -3.5570    4.7464 C   0  0  0  0  0  0  0  0  0  0  0  0
   11.5420   -0.5271    2.9760 C   0  0  0  0  0  0  0  0  0  0  0  0
   11.5886    0.8990    2.9673 C   0  0  0  0  0  0  0  0  0  0  0  0
   12.7561    1.6477    3.5742 C   0  0  0  0  0  0  0  0  0  0  0  0
   14.0162    1.3192    3.1981 C   0  0  0  0  0  0  0  0  0  0  0  0
   12.6133    2.7086    4.6266 C   0  0  0  0  0  0  0  0  0  0  0  0
   13.4367    3.8479    4.6693 C   0  0  0  0  0  0  0  0  0  0  0  0
   13.2725    4.8222    5.6560 C   0  0  0  0  0  0  0  0  0  0  0  0
   12.2671    4.6858    6.6096 C   0  0  0  0  0  0  0  0  0  0  0  0
   11.4272    3.5752    6.5740 C   0  0  0  0  0  0  0  0  0  0  0  0
   11.6009    2.5932    5.5942 C   0  0  0  0  0  0  0  0  0  0  0  0
   10.5382    1.6469    2.3393 C   0  0  0  0  0  0  0  0  0  0  0  0
   10.5779    3.0635    2.1917 C   0  0  0  0  0  0  0  0  0  0  0  0
    9.5464    3.8061    1.6209 C   0  0  0  0  0  0  0  0  0  0  0  0
    8.4283    3.1520    1.1576 C   0  0  0  0  0  0  0  0  0  0  0  0
    8.3696    1.7619    1.2450 C   0  0  0  0  0  0  0  0  0  0  0  0
    9.4103    0.9668    1.8075 C   0  0  0  0  0  0  0  0  0  0  0  0
    9.3650   -0.4691    1.8134 C   0  0  0  0  0  0  0  0  0  0  0  0
   10.4479   -1.2137    2.3540 C   0  0  0  0  0  0  0  0  0  0  0  0
   10.3985   -2.6312    2.2203 C   0  0  0  0  0  0  0  0  0  0  0  0
    9.3241   -3.3135    1.6544 C   0  0  0  0  0  0  0  0  0  0  0  0
    8.2500   -2.5950    1.1815 C   0  0  0  0  0  0  0  0  0  0  0  0
    8.2784   -1.2031    1.2559 C   0  0  0  0  0  0  0  0  0  0  0  0
   16.4071    0.0265    3.3912 H   0  0  0  0  0  0  0  0  0  0  0  0
   16.3948    0.9001    1.8546 H   0  0  0  0  0  0  0  0  0  0  0  0
   16.3357   -0.8686    1.8687 H   0  0  0  0  0  0  0  0  0  0  0  0
   12.9013    0.1240    0.7882 H   0  0  0  0  0  0  0  0  0  0  0  0
   14.3356   -0.8129    0.4179 H   0  0  0  0  0  0  0  0  0  0  0  0
   14.3948    0.9555    0.4037 H   0  0  0  0  0  0  0  0  0  0  0  0
   14.7313   -1.6797    3.6865 H   0  0  0  0  0  0  0  0  0  0  0  0
   10.7915   -1.2968    5.5812 H   0  0  0  0  0  0  0  0  0  0  0  0
   10.3639   -2.9811    7.3204 H   0  0  0  0  0  0  0  0  0  0  0  0
   11.7529   -5.0329    7.4508 H   0  0  0  0  0  0  0  0  0  0  0  0
   13.5646   -5.4035    5.7971 H   0  0  0  0  0  0  0  0  0  0  0  0
   13.9771   -3.7646    4.0204 H   0  0  0  0  0  0  0  0  0  0  0  0
   14.8507    1.8477    3.6565 H   0  0  0  0  0  0  0  0  0  0  0  0
   14.2141    3.9981    3.9237 H   0  0  0  0  0  0  0  0  0  0  0  0
   13.9280    5.6888    5.6784 H   0  0  0  0  0  0  0  0  0  0  0  0
   12.1344    5.4448    7.3755 H   0  0  0  0  0  0  0  0  0  0  0  0
   10.6341    3.4696    7.3096 H   0  0  0  0  0  0  0  0  0  0  0  0
   10.9321    1.7357    5.5910 H   0  0  0  0  0  0  0  0  0  0  0  0
   11.4452    3.6319    2.5157 H   0  0  0  0  0  0  0  0  0  0  0  0
    9.6292    4.8864    1.5441 H   0  0  0  0  0  0  0  0  0  0  0  0
    7.6092    3.7082    0.7110 H   0  0  0  0  0  0  0  0  0  0  0  0
    7.4717    1.3073    0.8379 H   0  0  0  0  0  0  0  0  0  0  0  0
   11.2284   -3.2494    2.5525 H   0  0  0  0  0  0  0  0  0  0  0  0
    9.3390   -4.3975    1.5882 H   0  0  0  0  0  0  0  0  0  0  0  0
    7.3988   -3.1031    0.7378 H   0  0  0  0  0  0  0  0  0  0  0  0
    7.4116   -0.6972    0.8416 H   0  0  0  0  0  0  0  0  0  0  0  0
  1  2  1  0  0  0  0
  1 34  1  0  0  0  0
  1 35  1  0  0  0  0
  1 36  1  0  0  0  0
  2 15  1  0  0  0  0
  2  4  1  0  0  0  0
  2  3  1  0  0  0  0
  3 37  1  0  0  0  0
  3 38  1  0  0  0  0
  3 39  1  0  0  0  0
  4  5  2  0  0  0  0
  4 40  1  0  0  0  0
  5 12  1  0  0  0  0
  5  6  1  0  0  0  0
  6  7  2  0  0  0  0
  6 11  1  0  0  0  0
  7  8  1  0  0  0  0
  7 41  1  0  0  0  0
  8  9  2  0  0  0  0
  8 42  1  0  0  0  0
  9 10  1  0  0  0  0
  9 43  1  0  0  0  0
 10 11  2  0  0  0  0
 10 44  1  0  0  0  0
 11 45  1  0  0  0  0
 12 13  2  0  0  0  0
 12 29  1  0  0  0  0
 13 14  1  0  0  0  0
 13 22  1  0  0  0  0
 14 15  2  0  0  0  0
 14 16  1  0  0  0  0
 15 46  1  0  0  0  0
 16 17  2  0  0  0  0
 16 21  1  0  0  0  0
 17 18  1  0  0  0  0
 17 47  1  0  0  0  0
 18 19  2  0  0  0  0
 18 48  1  0  0  0  0
 19 20  1  0  0  0  0
 19 49  1  0  0  0  0
 20 21  2  0  0  0  0
 20 50  1  0  0  0  0
 21 51  1  0  0  0  0
 22 27  1  0  0  0  0
 22 23  2  0  0  0  0
 23 24  1  0  0  0  0
 23 52  1  0  0  0  0
 24 25  2  0  0  0  0
 24 53  1  0  0  0  0
 25 26  1  0  0  0  0
 25 54  1  0  0  0  0
 26 27  2  0  0  0  0
 26 55  1  0  0  0  0
 27 28  1  0  0  0  0
 28 29  2  0  0  0  0
 28 33  1  0  0  0  0
 29 30  1  0  0  0  0
 30 31  2  0  0  0  0
 30 56  1  0  0  0  0
 31 32  1  0  0  0  0
 31 57  1  0  0  0  0
 32 33  2  0  0  0  0
 32 58  1  0  0  0  0
 33 59  1  0  0  0  0
M  END
$$$$