922997 922996
 OpenBabel01211413353D

 36 38  0  0  1  0  0  0  0  0999 V2000
    1.0995   -0.3240   -0.0352 O   0  0  0  0  0  0  0  0  0  0  0  0
    2.4866    0.0731    0.0152 C   0  0  3  0  0  0  0  0  0  0  0  0
    3.0966   -0.3714    1.6823 P   0  0  3  0  0  0  0  0  0  0  0  0
    2.5864   -1.8193    1.4327 O   0  0  0  0  0  0  0  0  0  0  0  0
    4.9027   -0.0675    1.1632 C   0  0  0  0  0  0  0  0  0  0  0  0
    5.4322    1.2288    1.2539 C   0  0  0  0  0  0  0  0  0  0  0  0
    6.7608    1.4572    0.8974 C   0  0  0  0  0  0  0  0  0  0  0  0
    7.5595    0.4015    0.4540 C   0  0  0  0  0  0  0  0  0  0  0  0
    7.0360   -0.8886    0.3669 C   0  0  0  0  0  0  0  0  0  0  0  0
    5.7111   -1.1277    0.7242 C   0  0  0  0  0  0  0  0  0  0  0  0
    3.6939   -0.8066    3.3148 C   0  0  0  0  0  0  0  0  0  0  0  0
    3.6323    0.1616    4.3318 C   0  0  0  0  0  0  0  0  0  0  0  0
    4.0918   -0.1214    5.6216 C   0  0  0  0  0  0  0  0  0  0  0  0
    4.6128   -1.3785    5.9205 C   0  0  0  0  0  0  0  0  0  0  0  0
    4.6723   -2.3560    4.9329 C   0  0  0  0  0  0  0  0  0  0  0  0
    4.2154   -2.0723    3.6453 C   0  0  0  0  0  0  0  0  0  0  0  0
    3.1341   -0.5140   -1.2059 C   0  0  0  0  0  0  0  0  0  0  0  0
    3.2189   -1.8326   -1.6178 C   0  0  0  0  0  0  0  0  0  0  0  0
    3.9200   -1.9807   -2.8492 C   0  0  0  0  0  0  0  0  0  0  0  0
    4.3306   -0.7699   -3.3564 C   0  0  0  0  0  0  0  0  0  0  0  0
    3.8739    0.5341   -2.3534 S   0  0  0  0  0  0  0  0  0  0  0  0
    1.1226   -1.2490    0.2980 H   0  0  0  0  0  0  0  0  0  0  0  0
    2.4829    1.1679   -0.0321 H   0  0  0  0  0  0  0  0  0  0  0  0
    4.8216    2.0551    1.6056 H   0  0  0  0  0  0  0  0  0  0  0  0
    7.1800    2.4578    0.9671 H   0  0  0  0  0  0  0  0  0  0  0  0
    8.5950    0.5837    0.1776 H   0  0  0  0  0  0  0  0  0  0  0  0
    7.6610   -1.7080    0.0216 H   0  0  0  0  0  0  0  0  0  0  0  0
    5.3039   -2.1338    0.6571 H   0  0  0  0  0  0  0  0  0  0  0  0
    3.2292    1.1495    4.1236 H   0  0  0  0  0  0  0  0  0  0  0  0
    4.0434    0.6393    6.3965 H   0  0  0  0  0  0  0  0  0  0  0  0
    4.9691   -1.5989    6.9232 H   0  0  0  0  0  0  0  0  0  0  0  0
    5.0703   -3.3414    5.1599 H   0  0  0  0  0  0  0  0  0  0  0  0
    4.2614   -2.8538    2.8891 H   0  0  0  0  0  0  0  0  0  0  0  0
    2.8054   -2.6602   -1.0526 H   0  0  0  0  0  0  0  0  0  0  0  0
    4.1075   -2.9278   -3.3394 H   0  0  0  0  0  0  0  0  0  0  0  0
    4.8733   -0.5857   -4.2730 H   0  0  0  0  0  0  0  0  0  0  0  0
  1  2  1  0  0  0  0
  1 22  1  0  0  0  0
  2 17  1  0  0  0  0
  2  3  1  0  0  0  0
  2 23  1  0  0  0  0
  3 11  1  0  0  0  0
  3  5  1  0  0  0  0
  3  4  2  0  0  0  0
  5  6  2  0  0  0  0
  5 10  1  0  0  0  0
  6  7  1  0  0  0  0
  6 24  1  0  0  0  0
  7  8  2  0  0  0  0
  7 25  1  0  0  0  0
  8  9  1  0  0  0  0
  8 26  1  0  0  0  0
  9 10  2  0  0  0  0
  9 27  1  0  0  0  0
 10 28  1  0  0  0  0
 11 12  2  0  0  0  0
 11 16  1  0  0  0  0
 12 13  1  0  0  0  0
 12 29  1  0  0  0  0
 13 14  2  0  0  0  0
 13 30  1  0  0  0  0
 14 15  1  0  0  0  0
 14 31  1  0  0  0  0
 15 16  2  0  0  0  0
 15 32  1  0  0  0  0
 16 33  1  0  0  0  0
 17 18  2  0  0  0  0
 17 21  1  0  0  0  0
 18 19  1  0  0  0  0
 18 34  1  0  0  0  0
 19 20  2  0  0  0  0
 19 35  1  0  0  0  0
 20 21  1  0  0  0  0
 20 36  1  0  0  0  0
M  END
$$$$