2042492 2042491
 OpenBabel01211413463D

 35 36  0  0  1  0  0  0  0  0999 V2000
    2.5584   -2.6170   -0.2275 O   0  0  0  0  0  0  0  0  0  0  0  0
    2.3667   -1.4422    0.0791 C   0  0  0  0  0  0  0  0  0  0  0  0
    1.0691   -0.7159   -0.2927 C   0  0  3  0  0  0  0  0  0  0  0  0
   -0.1641   -1.5349    0.0421 C   0  0  0  0  0  0  0  0  0  0  0  0
   -1.2283   -0.4692    0.0920 C   0  0  0  0  0  0  0  0  0  0  0  0
   -0.4867    0.6910    0.7213 C   0  0  0  0  0  0  0  0  0  0  0  0
    0.8994    0.5488    0.3693 O   0  0  0  0  0  0  0  0  0  0  0  0
    3.2595   -0.6187    0.7256 N   0  0  0  0  0  0  0  0  0  0  0  0
    4.5492   -0.9507    1.0638 C   0  0  0  0  0  0  0  0  0  0  0  0
    5.2961   -0.1112    1.7879 N   0  0  0  0  0  0  0  0  0  0  0  0
    6.5258   -0.7247    1.9402 O   0  0  0  0  0  0  0  0  0  0  0  0
    6.5226   -1.9245    1.2954 C   0  0  0  0  0  0  0  0  0  0  0  0
    5.2838   -2.1078    0.7255 C   0  0  0  0  0  0  0  0  0  0  0  0
    7.7839   -2.7461    1.3151 C   0  0  0  0  0  0  0  0  0  0  0  0
    8.3400   -2.8595   -0.1163 C   0  0  0  0  0  0  0  0  0  0  0  0
    8.8645   -2.1154    2.2123 C   0  0  0  0  0  0  0  0  0  0  0  0
    7.4704   -4.1564    1.8479 C   0  0  0  0  0  0  0  0  0  0  0  0
    1.1133   -0.5089   -1.3692 H   0  0  0  0  0  0  0  0  0  0  0  0
   -0.0628   -2.0097    1.0261 H   0  0  0  0  0  0  0  0  0  0  0  0
   -0.3690   -2.3193   -0.6919 H   0  0  0  0  0  0  0  0  0  0  0  0
   -1.5361   -0.2073   -0.9276 H   0  0  0  0  0  0  0  0  0  0  0  0
   -2.1208   -0.7606    0.6517 H   0  0  0  0  0  0  0  0  0  0  0  0
   -0.8554    1.6594    0.3705 H   0  0  0  0  0  0  0  0  0  0  0  0
   -0.5581    0.6642    1.8132 H   0  0  0  0  0  0  0  0  0  0  0  0
    2.9409    0.2983    1.0178 H   0  0  0  0  0  0  0  0  0  0  0  0
    4.9676   -2.9537    0.1342 H   0  0  0  0  0  0  0  0  0  0  0  0
    7.6241   -3.3457   -0.7897 H   0  0  0  0  0  0  0  0  0  0  0  0
    9.2642   -3.4483   -0.1374 H   0  0  0  0  0  0  0  0  0  0  0  0
    8.5634   -1.8711   -0.5353 H   0  0  0  0  0  0  0  0  0  0  0  0
    8.5198   -2.0233    3.2490 H   0  0  0  0  0  0  0  0  0  0  0  0
    9.1407   -1.1129    1.8645 H   0  0  0  0  0  0  0  0  0  0  0  0
    9.7768   -2.7233    2.2198 H   0  0  0  0  0  0  0  0  0  0  0  0
    7.0563   -4.1142    2.8623 H   0  0  0  0  0  0  0  0  0  0  0  0
    8.3724   -4.7781    1.8800 H   0  0  0  0  0  0  0  0  0  0  0  0
    6.7377   -4.6731    1.2167 H   0  0  0  0  0  0  0  0  0  0  0  0
  1  2  2  0  0  0  0
  2  8  1  0  0  0  0
  2  3  1  0  0  0  0
  3  7  1  0  0  0  0
  3  4  1  0  0  0  0
  3 18  1  0  0  0  0
  4  5  1  0  0  0  0
  4 19  1  0  0  0  0
  4 20  1  0  0  0  0
  5  6  1  0  0  0  0
  5 21  1  0  0  0  0
  5 22  1  0  0  0  0
  6  7  1  0  0  0  0
  6 23  1  0  0  0  0
  6 24  1  0  0  0  0
  8  9  1  0  0  0  0
  8 25  1  0  0  0  0
  9 13  1  0  0  0  0
  9 10  2  0  0  0  0
 10 11  1  0  0  0  0
 11 12  1  0  0  0  0
 12 13  2  0  0  0  0
 12 14  1  0  0  0  0
 13 26  1  0  0  0  0
 14 17  1  0  0  0  0
 14 16  1  0  0  0  0
 14 15  1  0  0  0  0
 15 27  1  0  0  0  0
 15 28  1  0  0  0  0
 15 29  1  0  0  0  0
 16 30  1  0  0  0  0
 16 31  1  0  0  0  0
 16 32  1  0  0  0  0
 17 33  1  0  0  0  0
 17 34  1  0  0  0  0
 17 35  1  0  0  0  0
M  END
$$$$