27035583 27035582
 OpenBabel01211414053D

 44 43  0  0  0  0  0  0  0  0999 V2000
    5.2254    1.1380   -0.2443 C   0  0  0  0  0  0  0  0  0  0  0  0
    6.5523    0.4974   -0.5624 C   0  0  0  0  0  0  0  0  0  0  0  0
    7.6025    1.1014   -0.3698 O   0  0  0  0  0  0  0  0  0  0  0  0
    6.4983   -0.8714   -1.1629 C   0  0  0  0  0  0  0  0  0  0  0  0
    7.5562   -1.6243   -1.5317 C   0  0  0  0  0  0  0  0  0  0  0  0
    7.4354   -2.8774   -2.1335 N   0  0  0  0  0  0  0  0  0  0  0  0
    6.3665   -3.8476   -1.8853 C   0  0  0  0  0  0  0  0  0  0  0  0
    6.4977   -5.0158   -2.8678 C   0  0  0  0  0  0  0  0  0  0  0  0
    5.4560   -6.4229   -2.3642 S   0  0  0  0  0  0  0  0  0  0  0  0
    5.7858   -7.7577   -3.8968 S   0  0  0  0  0  0  0  0  0  0  0  0
    7.4659   -8.3755   -3.5160 C   0  0  0  0  0  0  0  0  0  0  0  0
    7.9306   -9.4392   -4.5140 C   0  0  0  0  0  0  0  0  0  0  0  0
    7.9542   -8.9509   -5.8866 N   0  0  0  0  0  0  0  0  0  0  0  0
    8.9676   -8.2453   -6.4934 C   0  0  0  0  0  0  0  0  0  0  0  0
    8.9802   -7.7096   -7.7275 C   0  0  0  0  0  0  0  0  0  0  0  0
   10.1772   -6.9785   -8.2751 C   0  0  0  0  0  0  0  0  0  0  0  0
   10.2499   -6.7572   -9.4861 O   0  0  0  0  0  0  0  0  0  0  0  0
   11.2447   -6.4430   -7.3544 C   0  0  0  0  0  0  0  0  0  0  0  0
    7.8392   -7.8076   -8.7034 C   0  0  0  0  0  0  0  0  0  0  0  0
    8.9789   -1.1378   -1.3444 C   0  0  0  0  0  0  0  0  0  0  0  0
    4.4874    0.3858    0.0430 H   0  0  0  0  0  0  0  0  0  0  0  0
    4.8732    1.6924   -1.1164 H   0  0  0  0  0  0  0  0  0  0  0  0
    5.3515    1.8213    0.6004 H   0  0  0  0  0  0  0  0  0  0  0  0
    5.4937   -1.2388   -1.3341 H   0  0  0  0  0  0  0  0  0  0  0  0
    8.3461   -3.3277   -2.2546 H   0  0  0  0  0  0  0  0  0  0  0  0
    5.3820   -3.3821   -2.0093 H   0  0  0  0  0  0  0  0  0  0  0  0
    6.4533   -4.1975   -0.8493 H   0  0  0  0  0  0  0  0  0  0  0  0
    7.5392   -5.3545   -2.8977 H   0  0  0  0  0  0  0  0  0  0  0  0
    6.2176   -4.6853   -3.8743 H   0  0  0  0  0  0  0  0  0  0  0  0
    7.4638   -8.8062   -2.5091 H   0  0  0  0  0  0  0  0  0  0  0  0
    8.1636   -7.5327   -3.5336 H   0  0  0  0  0  0  0  0  0  0  0  0
    7.2705  -10.3135   -4.4647 H   0  0  0  0  0  0  0  0  0  0  0  0
    8.9305   -9.7899   -4.2289 H   0  0  0  0  0  0  0  0  0  0  0  0
    7.0419   -8.9107   -6.3362 H   0  0  0  0  0  0  0  0  0  0  0  0
    9.8376   -8.1859   -5.8465 H   0  0  0  0  0  0  0  0  0  0  0  0
   11.4700   -7.1136   -6.5263 H   0  0  0  0  0  0  0  0  0  0  0  0
   10.9351   -5.4628   -6.9769 H   0  0  0  0  0  0  0  0  0  0  0  0
   12.1740   -6.3264   -7.9237 H   0  0  0  0  0  0  0  0  0  0  0  0
    6.9351   -8.2422   -8.2700 H   0  0  0  0  0  0  0  0  0  0  0  0
    8.1232   -8.4298   -9.5594 H   0  0  0  0  0  0  0  0  0  0  0  0
    7.5665   -6.8121   -9.0720 H   0  0  0  0  0  0  0  0  0  0  0  0
    9.1971   -0.3069   -2.0227 H   0  0  0  0  0  0  0  0  0  0  0  0
    9.7094   -1.9287   -1.5550 H   0  0  0  0  0  0  0  0  0  0  0  0
    9.1600   -0.8309   -0.3081 H   0  0  0  0  0  0  0  0  0  0  0  0
  1  2  1  0  0  0  0
  1 21  1  0  0  0  0
  1 22  1  0  0  0  0
  1 23  1  0  0  0  0
  2  4  1  0  0  0  0
  2  3  2  0  0  0  0
  4  5  2  0  0  0  0
  4 24  1  0  0  0  0
  5 20  1  0  0  0  0
  5  6  1  0  0  0  0
  6  7  1  0  0  0  0
  6 25  1  0  0  0  0
  7  8  1  0  0  0  0
  7 26  1  0  0  0  0
  7 27  1  0  0  0  0
  8  9  1  0  0  0  0
  8 28  1  0  0  0  0
  8 29  1  0  0  0  0
  9 10  1  0  0  0  0
 10 11  1  0  0  0  0
 11 12  1  0  0  0  0
 11 30  1  0  0  0  0
 11 31  1  0  0  0  0
 12 13  1  0  0  0  0
 12 32  1  0  0  0  0
 12 33  1  0  0  0  0
 13 14  1  0  0  0  0
 13 34  1  0  0  0  0
 14 15  2  0  0  0  0
 14 35  1  0  0  0  0
 15 19  1  0  0  0  0
 15 16  1  0  0  0  0
 16 18  1  0  0  0  0
 16 17  2  0  0  0  0
 18 36  1  0  0  0  0
 18 37  1  0  0  0  0
 18 38  1  0  0  0  0
 19 39  1  0  0  0  0
 19 40  1  0  0  0  0
 19 41  1  0  0  0  0
 20 42  1  0  0  0  0
 20 43  1  0  0  0  0
 20 44  1  0  0  0  0
M  END
$$$$