45585445 45585444
 OpenBabel01151412063D

 36 37  0  0  0  0  0  0  0  0999 V2000
    1.3818    0.2188    1.4870 C   0  0  0  0  0  0  0  0  0  0  0  0
    2.5617    0.0105    1.4191 C   0  0  0  0  0  0  0  0  0  0  0  0
    4.0043   -0.2543    1.3297 C   0  0  0  0  0  0  0  0  0  0  0  0
    4.6277    0.7948    0.5836 O   0  0  0  0  0  0  0  0  0  0  0  0
    5.9414    1.0084    0.9298 C   0  0  0  0  0  0  0  0  0  0  0  0
    6.3164    2.3114    1.2899 C   0  0  0  0  0  0  0  0  0  0  0  0
    5.1549    3.5905    1.3653 Cl  0  0  0  0  0  0  0  0  0  0  0  0
    7.6436    2.6102    1.6167 C   0  0  0  0  0  0  0  0  0  0  0  0
    8.6149    1.6082    1.5765 C   0  0  0  0  0  0  0  0  0  0  0  0
    8.2458    0.3141    1.1776 C   0  0  0  0  0  0  0  0  0  0  0  0
    6.9174    0.0005    0.8658 C   0  0  0  0  0  0  0  0  0  0  0  0
    6.5191   -1.2405    0.4427 O   0  0  0  0  0  0  0  0  0  0  0  0
    7.3441   -2.3415    0.8083 C   0  0  0  0  0  0  0  0  0  0  0  0
   10.0365    1.8442    1.8768 C   0  0  0  0  0  0  0  0  0  0  0  0
   10.5712    2.4087    2.9821 C   0  0  0  0  0  0  0  0  0  0  0  0
   12.0066    2.3976    3.0970 C   0  0  0  0  0  0  0  0  0  0  0  0
   12.7954    2.6080    4.6337 S   0  0  0  0  0  0  0  0  0  0  0  0
   14.3192    2.3536    3.9053 C   0  0  0  0  0  0  0  0  0  0  0  0
   14.1701    2.1504    2.5510 C   0  0  0  0  0  0  0  0  0  0  0  0
   12.8589    2.1710    2.1079 N   0  0  0  0  0  0  0  0  0  0  0  0
   15.2493    1.9024    1.5619 C   0  0  0  0  0  0  0  0  0  0  0  0
    9.7534    2.9420    4.0264 C   0  0  0  0  0  0  0  0  0  0  0  0
    9.0869    3.3865    4.8644 N   0  0  0  0  0  0  0  0  0  0  0  0
    0.3335    0.4071    1.5392 H   0  0  0  0  0  0  0  0  0  0  0  0
    4.1458   -1.2073    0.8086 H   0  0  0  0  0  0  0  0  0  0  0  0
    4.4215   -0.3328    2.3420 H   0  0  0  0  0  0  0  0  0  0  0  0
    7.9044    3.6305    1.8886 H   0  0  0  0  0  0  0  0  0  0  0  0
    9.0213   -0.4435    1.0989 H   0  0  0  0  0  0  0  0  0  0  0  0
    8.2319   -2.3879    0.1702 H   0  0  0  0  0  0  0  0  0  0  0  0
    6.7672   -3.2573    0.6483 H   0  0  0  0  0  0  0  0  0  0  0  0
    7.6203   -2.3051    1.8679 H   0  0  0  0  0  0  0  0  0  0  0  0
   10.7050    1.4337    1.1172 H   0  0  0  0  0  0  0  0  0  0  0  0
   15.2297    2.3674    4.4876 H   0  0  0  0  0  0  0  0  0  0  0  0
   16.2363    2.1088    1.9875 H   0  0  0  0  0  0  0  0  0  0  0  0
   15.1163    2.5437    0.6850 H   0  0  0  0  0  0  0  0  0  0  0  0
   15.2271    0.8587    1.2337 H   0  0  0  0  0  0  0  0  0  0  0  0
  1  2  3  0  0  0  0
  1 24  1  0  0  0  0
  2  3  1  0  0  0  0
  3  4  1  0  0  0  0
  3 25  1  0  0  0  0
  3 26  1  0  0  0  0
  4  5  1  0  0  0  0
  5 11  1  0  0  0  0
  5  6  2  0  0  0  0
  6  8  1  0  0  0  0
  6  7  1  0  0  0  0
  8  9  2  0  0  0  0
  8 27  1  0  0  0  0
  9 10  1  0  0  0  0
  9 14  1  0  0  0  0
 10 11  2  0  0  0  0
 10 28  1  0  0  0  0
 11 12  1  0  0  0  0
 12 13  1  0  0  0  0
 13 29  1  0  0  0  0
 13 30  1  0  0  0  0
 13 31  1  0  0  0  0
 14 15  2  0  0  0  0
 14 32  1  0  0  0  0
 15 22  1  0  0  0  0
 15 16  1  0  0  0  0
 16 17  1  0  0  0  0
 16 20  2  0  0  0  0
 17 18  1  0  0  0  0
 18 19  2  0  0  0  0
 18 33  1  0  0  0  0
 19 20  1  0  0  0  0
 19 21  1  0  0  0  0
 21 34  1  0  0  0  0
 21 35  1  0  0  0  0
 21 36  1  0  0  0  0
 22 23  3  0  0  0  0
M  END
$$$$