1713739 1713738
 OpenBabel01151412083D

 58 61  0  0  1  0  0  0  0  0999 V2000
    1.8983    2.0984    1.2128 C   0  0  0  0  0  0  0  0  0  0  0  0
    2.9927    1.9327    0.7474 C   0  0  0  0  0  0  0  0  0  0  0  0
    4.3316    1.7409    0.1740 C   0  0  0  0  0  0  0  0  0  0  0  0
    4.3900    0.4752   -0.4783 O   0  0  0  0  0  0  0  0  0  0  0  0
    5.5456    0.1445   -1.1331 C   0  0  0  0  0  0  0  0  0  0  0  0
    6.6925    0.9512   -1.1636 C   0  0  0  0  0  0  0  0  0  0  0  0
    7.8308    0.5516   -1.8689 C   0  0  0  0  0  0  0  0  0  0  0  0
    7.8333   -0.6613   -2.5432 C   0  0  0  0  0  0  0  0  0  0  0  0
    6.7081   -1.4802   -2.5156 C   0  0  0  0  0  0  0  0  0  0  0  0
    5.5447   -1.0916   -1.8124 C   0  0  0  0  0  0  0  0  0  0  0  0
    4.3046   -2.0065   -1.8257 C   0  0  3  0  0  0  0  0  0  0  0  0
    3.8147   -2.1855   -3.2523 C   0  0  0  0  0  0  0  0  0  0  0  0
    3.9385   -3.3487   -3.9153 C   0  0  0  0  0  0  0  0  0  0  0  0
    4.4691   -4.4816   -3.3114 O   0  0  0  0  0  0  0  0  0  0  0  0
    4.7038   -4.4796   -1.9433 C   0  0  0  0  0  0  0  0  0  0  0  0
    4.6237   -3.3565   -1.2059 C   0  0  0  0  0  0  0  0  0  0  0  0
    4.8491   -3.4398    0.2645 C   0  0  0  0  0  0  0  0  0  0  0  0
    4.7093   -2.4522    0.9818 O   0  0  0  0  0  0  0  0  0  0  0  0
    5.3160   -4.7578    0.8537 C   0  0  0  0  0  0  0  0  0  0  0  0
    4.7508   -5.9793    0.1117 C   0  0  0  0  0  0  0  0  0  0  0  0
    5.0402   -5.8371   -1.3947 C   0  0  0  0  0  0  0  0  0  0  0  0
    5.4322   -7.2558    0.6368 C   0  0  0  0  0  0  0  0  0  0  0  0
    3.2339   -6.1080    0.3626 C   0  0  0  0  0  0  0  0  0  0  0  0
    3.5855   -3.5620   -5.3605 C   0  0  0  0  0  0  0  0  0  0  0  0
    2.7605   -2.4316   -6.0141 C   0  0  0  0  0  0  0  0  0  0  0  0
    3.1936   -1.0606   -5.4718 C   0  0  0  0  0  0  0  0  0  0  0  0
    3.2270   -1.0199   -3.9598 C   0  0  0  0  0  0  0  0  0  0  0  0
    2.8337   -0.0347   -3.3416 O   0  0  0  0  0  0  0  0  0  0  0  0
    2.9974   -2.4604   -7.5361 C   0  0  0  0  0  0  0  0  0  0  0  0
    1.2562   -2.6504   -5.7573 C   0  0  0  0  0  0  0  0  0  0  0  0
    9.2274   -1.1530   -3.4223 Cl  0  0  0  0  0  0  0  0  0  0  0  0
    0.9215    2.2326    1.6209 H   0  0  0  0  0  0  0  0  0  0  0  0
    5.0743    1.7798    0.9796 H   0  0  0  0  0  0  0  0  0  0  0  0
    4.5241    2.5464   -0.5448 H   0  0  0  0  0  0  0  0  0  0  0  0
    6.7364    1.9055   -0.6487 H   0  0  0  0  0  0  0  0  0  0  0  0
    8.7069    1.1943   -1.8863 H   0  0  0  0  0  0  0  0  0  0  0  0
    6.7347   -2.4255   -3.0528 H   0  0  0  0  0  0  0  0  0  0  0  0
    3.4799   -1.5714   -1.2479 H   0  0  0  0  0  0  0  0  0  0  0  0
    6.4127   -4.7530    0.8229 H   0  0  0  0  0  0  0  0  0  0  0  0
    5.0144   -4.7879    1.9079 H   0  0  0  0  0  0  0  0  0  0  0  0
    4.4822   -6.6044   -1.9471 H   0  0  0  0  0  0  0  0  0  0  0  0
    6.1038   -6.0212   -1.5972 H   0  0  0  0  0  0  0  0  0  0  0  0
    6.5179   -7.2149    0.4938 H   0  0  0  0  0  0  0  0  0  0  0  0
    5.0620   -8.1449    0.1138 H   0  0  0  0  0  0  0  0  0  0  0  0
    5.2436   -7.3938    1.7074 H   0  0  0  0  0  0  0  0  0  0  0  0
    2.6770   -5.2355    0.0065 H   0  0  0  0  0  0  0  0  0  0  0  0
    3.0214   -6.2201    1.4318 H   0  0  0  0  0  0  0  0  0  0  0  0
    2.8262   -6.9877   -0.1487 H   0  0  0  0  0  0  0  0  0  0  0  0
    3.0466   -4.5136   -5.4609 H   0  0  0  0  0  0  0  0  0  0  0  0
    4.5331   -3.6914   -5.9003 H   0  0  0  0  0  0  0  0  0  0  0  0
    2.5086   -0.2792   -5.8234 H   0  0  0  0  0  0  0  0  0  0  0  0
    4.1990   -0.7950   -5.8213 H   0  0  0  0  0  0  0  0  0  0  0  0
    4.0561   -2.3009   -7.7731 H   0  0  0  0  0  0  0  0  0  0  0  0
    2.4250   -1.6757   -8.0427 H   0  0  0  0  0  0  0  0  0  0  0  0
    2.7037   -3.4246   -7.9654 H   0  0  0  0  0  0  0  0  0  0  0  0
    1.0191   -2.6613   -4.6887 H   0  0  0  0  0  0  0  0  0  0  0  0
    0.9204   -3.6043   -6.1808 H   0  0  0  0  0  0  0  0  0  0  0  0
    0.6589   -1.8586   -6.2243 H   0  0  0  0  0  0  0  0  0  0  0  0
  1  2  3  0  0  0  0
  1 32  1  0  0  0  0
  2  3  1  0  0  0  0
  3  4  1  0  0  0  0
  3 33  1  0  0  0  0
  3 34  1  0  0  0  0
  4  5  1  0  0  0  0
  5  6  2  0  0  0  0
  5 10  1  0  0  0  0
  6  7  1  0  0  0  0
  6 35  1  0  0  0  0
  7  8  2  0  0  0  0
  7 36  1  0  0  0  0
  8  9  1  0  0  0  0
  8 31  1  0  0  0  0
  9 10  2  0  0  0  0
  9 37  1  0  0  0  0
 10 11  1  0  0  0  0
 11 16  1  0  0  0  0
 11 12  1  0  0  0  0
 11 38  1  0  0  0  0
 12 13  2  0  0  0  0
 12 27  1  0  0  0  0
 13 24  1  0  0  0  0
 13 14  1  0  0  0  0
 14 15  1  0  0  0  0
 15 21  1  0  0  0  0
 15 16  2  0  0  0  0
 16 17  1  0  0  0  0
 17 19  1  0  0  0  0
 17 18  2  0  0  0  0
 19 20  1  0  0  0  0
 19 39  1  0  0  0  0
 19 40  1  0  0  0  0
 20 21  1  0  0  0  0
 20 23  1  0  0  0  0
 20 22  1  0  0  0  0
 21 41  1  0  0  0  0
 21 42  1  0  0  0  0
 22 43  1  0  0  0  0
 22 44  1  0  0  0  0
 22 45  1  0  0  0  0
 23 46  1  0  0  0  0
 23 47  1  0  0  0  0
 23 48  1  0  0  0  0
 24 25  1  0  0  0  0
 24 49  1  0  0  0  0
 24 50  1  0  0  0  0
 25 26  1  0  0  0  0
 25 30  1  0  0  0  0
 25 29  1  0  0  0  0
 26 27  1  0  0  0  0
 26 51  1  0  0  0  0
 26 52  1  0  0  0  0
 27 28  2  0  0  0  0
 29 53  1  0  0  0  0
 29 54  1  0  0  0  0
 29 55  1  0  0  0  0
 30 56  1  0  0  0  0
 30 57  1  0  0  0  0
 30 58  1  0  0  0  0
M  END
$$$$