20081157 20081156
 OpenBabel01151412153D

 38 40  0  0  0  0  0  0  0  0999 V2000
    2.3872    1.3131    1.3789 C   0  0  0  0  0  0  0  0  0  0  0  0
    2.3280    0.4102    0.5879 C   0  0  0  0  0  0  0  0  0  0  0  0
    2.2756   -0.6741   -0.3441 C   0  0  0  0  0  0  0  0  0  0  0  0
    1.2444   -0.7427   -1.2807 C   0  0  0  0  0  0  0  0  0  0  0  0
    1.1984   -1.8045   -2.1815 C   0  0  0  0  0  0  0  0  0  0  0  0
    2.1846   -2.7943   -2.1450 C   0  0  0  0  0  0  0  0  0  0  0  0
    3.2281   -2.7328   -1.2113 C   0  0  0  0  0  0  0  0  0  0  0  0
    3.2627   -1.6663   -0.3102 C   0  0  0  0  0  0  0  0  0  0  0  0
    4.1818   -3.7719   -1.2428 N   0  0  0  0  0  0  0  0  0  0  0  0
    5.3351   -3.8934   -0.4775 C   0  0  0  0  0  0  0  0  0  0  0  0
    5.7150   -3.0645    0.3522 O   0  0  0  0  0  0  0  0  0  0  0  0
    6.1386   -5.2339   -0.7891 C   0  0  0  0  0  0  0  0  0  0  0  0
    7.1564   -5.6698    0.3372 C   0  0  0  0  0  0  0  0  0  0  0  0
    6.6868   -7.1193    0.1318 C   0  0  0  0  0  0  0  0  0  0  0  0
    5.3630   -6.5502   -0.4043 C   0  0  0  0  0  0  0  0  0  0  0  0
    6.7900   -5.0951   -2.2699 C   0  0  0  0  0  0  0  0  0  0  0  0
    7.5590   -3.9613   -2.6173 C   0  0  0  0  0  0  0  0  0  0  0  0
    8.1334   -3.8040   -3.8818 C   0  0  0  0  0  0  0  0  0  0  0  0
    7.9670   -4.7894   -4.8462 C   0  0  0  0  0  0  0  0  0  0  0  0
    7.2283   -5.9266   -4.5429 C   0  0  0  0  0  0  0  0  0  0  0  0
    6.6504   -6.0727   -3.2768 C   0  0  0  0  0  0  0  0  0  0  0  0
    2.4514    2.1070    2.0850 H   0  0  0  0  0  0  0  0  0  0  0  0
    0.4768    0.0268   -1.3120 H   0  0  0  0  0  0  0  0  0  0  0  0
    0.3963   -1.8610   -2.9128 H   0  0  0  0  0  0  0  0  0  0  0  0
    2.1256   -3.6102   -2.8609 H   0  0  0  0  0  0  0  0  0  0  0  0
    4.0461   -1.5804    0.4361 H   0  0  0  0  0  0  0  0  0  0  0  0
    4.0382   -4.4882   -1.9439 H   0  0  0  0  0  0  0  0  0  0  0  0
    6.9252   -5.2742    1.3337 H   0  0  0  0  0  0  0  0  0  0  0  0
    8.2159   -5.4915    0.1324 H   0  0  0  0  0  0  0  0  0  0  0  0
    7.2689   -7.6717   -0.6142 H   0  0  0  0  0  0  0  0  0  0  0  0
    6.6100   -7.7257    1.0377 H   0  0  0  0  0  0  0  0  0  0  0  0
    4.8955   -7.1176   -1.2120 H   0  0  0  0  0  0  0  0  0  0  0  0
    4.6071   -6.4037    0.3783 H   0  0  0  0  0  0  0  0  0  0  0  0
    7.7128   -3.1739   -1.8782 H   0  0  0  0  0  0  0  0  0  0  0  0
    8.7120   -2.9115   -4.1061 H   0  0  0  0  0  0  0  0  0  0  0  0
    8.4170   -4.6740   -5.8284 H   0  0  0  0  0  0  0  0  0  0  0  0
    7.1043   -6.7075   -5.2891 H   0  0  0  0  0  0  0  0  0  0  0  0
    6.0924   -6.9848   -3.0798 H   0  0  0  0  0  0  0  0  0  0  0  0
  1  2  3  0  0  0  0
  1 22  1  0  0  0  0
  2  3  1  0  0  0  0
  3  4  2  0  0  0  0
  3  8  1  0  0  0  0
  4  5  1  0  0  0  0
  4 23  1  0  0  0  0
  5  6  2  0  0  0  0
  5 24  1  0  0  0  0
  6  7  1  0  0  0  0
  6 25  1  0  0  0  0
  7  8  2  0  0  0  0
  7  9  1  0  0  0  0
  8 26  1  0  0  0  0
  9 10  1  0  0  0  0
  9 27  1  0  0  0  0
 10 12  1  0  0  0  0
 10 11  2  0  0  0  0
 12 15  1  0  0  0  0
 12 13  1  0  0  0  0
 12 16  1  0  0  0  0
 13 14  1  0  0  0  0
 13 28  1  0  0  0  0
 13 29  1  0  0  0  0
 14 15  1  0  0  0  0
 14 30  1  0  0  0  0
 14 31  1  0  0  0  0
 15 32  1  0  0  0  0
 15 33  1  0  0  0  0
 16 17  2  0  0  0  0
 16 21  1  0  0  0  0
 17 18  1  0  0  0  0
 17 34  1  0  0  0  0
 18 19  2  0  0  0  0
 18 35  1  0  0  0  0
 19 20  1  0  0  0  0
 19 36  1  0  0  0  0
 20 21  2  0  0  0  0
 20 37  1  0  0  0  0
 21 38  1  0  0  0  0
M  END
$$$$