45645048 45645047
 OpenBabel01151412133D

 36 37  0  0  1  0  0  0  0  0999 V2000
    2.5692   -3.8850    6.6342 C   0  0  0  0  0  0  0  0  0  0  0  0
    3.3249   -4.6003    6.0389 C   0  0  0  0  0  0  0  0  0  0  0  0
    4.2263   -5.4499    5.3197 C   0  0  0  0  0  0  0  0  0  0  0  0
    4.5267   -6.7201    5.8122 C   0  0  0  0  0  0  0  0  0  0  0  0
    5.3965   -7.5481    5.1064 C   0  0  0  0  0  0  0  0  0  0  0  0
    5.9631   -7.1042    3.9093 C   0  0  0  0  0  0  0  0  0  0  0  0
    5.6733   -5.8272    3.4088 C   0  0  0  0  0  0  0  0  0  0  0  0
    4.7993   -5.0043    4.1224 C   0  0  0  0  0  0  0  0  0  0  0  0
    6.2932   -5.4600    2.1961 N   0  0  0  0  0  0  0  0  0  0  0  0
    6.2786   -4.2181    1.5819 C   0  0  0  0  0  0  0  0  0  0  0  0
    5.6888   -3.2198    1.9898 O   0  0  0  0  0  0  0  0  0  0  0  0
    7.0404   -4.1580    0.2480 C   0  0  3  0  0  0  0  0  0  0  0  0
    8.3974   -4.8084    0.3428 C   0  0  0  0  0  0  0  0  0  0  0  0
    9.4524   -4.4229    1.2303 C   0  0  0  0  0  0  0  0  0  0  0  0
    9.4802   -3.3318    2.2359 C   0  0  0  0  0  0  0  0  0  0  0  0
   10.5172   -5.2192    1.1012 N   0  0  0  0  0  0  0  0  0  0  0  0
   10.1984   -6.1200    0.1131 O   0  0  0  0  0  0  0  0  0  0  0  0
    8.9414   -5.8800   -0.3435 C   0  0  0  0  0  0  0  0  0  0  0  0
    8.4849   -6.7938   -1.4106 C   0  0  0  0  0  0  0  0  0  0  0  0
    6.1267   -4.6851   -0.8536 C   0  0  0  0  0  0  0  0  0  0  0  0
    1.8977   -3.2436    7.1579 H   0  0  0  0  0  0  0  0  0  0  0  0
    4.0863   -7.0686    6.7433 H   0  0  0  0  0  0  0  0  0  0  0  0
    5.6350   -8.5373    5.4885 H   0  0  0  0  0  0  0  0  0  0  0  0
    6.6431   -7.7686    3.3816 H   0  0  0  0  0  0  0  0  0  0  0  0
    4.5375   -4.0127    3.7670 H   0  0  0  0  0  0  0  0  0  0  0  0
    6.8878   -6.1677    1.7810 H   0  0  0  0  0  0  0  0  0  0  0  0
    7.2207   -3.0933    0.0416 H   0  0  0  0  0  0  0  0  0  0  0  0
    8.7326   -2.5639    2.0172 H   0  0  0  0  0  0  0  0  0  0  0  0
   10.4598   -2.8427    2.2534 H   0  0  0  0  0  0  0  0  0  0  0  0
    9.2776   -3.7334    3.2340 H   0  0  0  0  0  0  0  0  0  0  0  0
    8.2190   -6.2354   -2.3126 H   0  0  0  0  0  0  0  0  0  0  0  0
    7.6139   -7.3670   -1.0798 H   0  0  0  0  0  0  0  0  0  0  0  0
    9.2679   -7.5087   -1.6842 H   0  0  0  0  0  0  0  0  0  0  0  0
    5.8778   -5.7417   -0.7102 H   0  0  0  0  0  0  0  0  0  0  0  0
    6.5857   -4.5657   -1.8402 H   0  0  0  0  0  0  0  0  0  0  0  0
    5.1796   -4.1331   -0.8639 H   0  0  0  0  0  0  0  0  0  0  0  0
  1  2  3  0  0  0  0
  1 21  1  0  0  0  0
  2  3  1  0  0  0  0
  3  4  2  0  0  0  0
  3  8  1  0  0  0  0
  4  5  1  0  0  0  0
  4 22  1  0  0  0  0
  5  6  2  0  0  0  0
  5 23  1  0  0  0  0
  6  7  1  0  0  0  0
  6 24  1  0  0  0  0
  7  8  2  0  0  0  0
  7  9  1  0  0  0  0
  8 25  1  0  0  0  0
  9 10  1  0  0  0  0
  9 26  1  0  0  0  0
 10 12  1  0  0  0  0
 10 11  2  0  0  0  0
 12 20  1  0  0  0  0
 12 13  1  0  0  0  0
 12 27  1  0  0  0  0
 13 18  2  0  0  0  0
 13 14  1  0  0  0  0
 14 16  2  0  0  0  0
 14 15  1  0  0  0  0
 15 28  1  0  0  0  0
 15 29  1  0  0  0  0
 15 30  1  0  0  0  0
 16 17  1  0  0  0  0
 17 18  1  0  0  0  0
 18 19  1  0  0  0  0
 19 31  1  0  0  0  0
 19 32  1  0  0  0  0
 19 33  1  0  0  0  0
 20 34  1  0  0  0  0
 20 35  1  0  0  0  0
 20 36  1  0  0  0  0
M  END
$$$$