44521968 44521967
 OpenBabel01151412083D

 34 36  0  0  0  0  0  0  0  0999 V2000
    1.8121    0.3943    0.8127 C   0  0  0  0  0  0  0  0  0  0  0  0
    2.9348    0.1765    0.4469 C   0  0  0  0  0  0  0  0  0  0  0  0
    4.2758   -0.0954    0.0262 C   0  0  0  0  0  0  0  0  0  0  0  0
    5.1804    0.9540   -0.1369 C   0  0  0  0  0  0  0  0  0  0  0  0
    6.4921    0.6836   -0.5203 C   0  0  0  0  0  0  0  0  0  0  0  0
    6.8985   -0.6363   -0.7325 C   0  0  0  0  0  0  0  0  0  0  0  0
    5.9971   -1.6986   -0.5757 C   0  0  0  0  0  0  0  0  0  0  0  0
    4.6810   -1.4163   -0.2015 C   0  0  0  0  0  0  0  0  0  0  0  0
    6.4976   -3.0024   -0.7891 N   0  0  0  0  0  0  0  0  0  0  0  0
    5.7935   -4.1871   -0.7416 C   0  0  0  0  0  0  0  0  0  0  0  0
    4.5963   -4.3203   -0.5157 O   0  0  0  0  0  0  0  0  0  0  0  0
    6.6306   -5.4131   -0.9190 C   0  0  0  0  0  0  0  0  0  0  0  0
    7.7141   -5.4648   -1.7063 C   0  0  0  0  0  0  0  0  0  0  0  0
    8.4268   -6.7343   -1.7890 C   0  0  0  0  0  0  0  0  0  0  0  0
    8.0368   -7.8062   -0.9809 C   0  0  0  0  0  0  0  0  0  0  0  0
    7.0096   -7.7399   -0.0828 O   0  0  0  0  0  0  0  0  0  0  0  0
    6.1131   -6.6209   -0.1876 C   0  0  0  0  0  0  0  0  0  0  0  0
    8.7334   -9.0146   -1.0278 C   0  0  0  0  0  0  0  0  0  0  0  0
    9.8207   -9.1623   -1.8881 C   0  0  0  0  0  0  0  0  0  0  0  0
   10.2161   -8.0978   -2.6963 C   0  0  0  0  0  0  0  0  0  0  0  0
    9.5225   -6.8858   -2.6471 C   0  0  0  0  0  0  0  0  0  0  0  0
    0.8162    0.5773    1.1431 H   0  0  0  0  0  0  0  0  0  0  0  0
    4.8696    1.9811    0.0384 H   0  0  0  0  0  0  0  0  0  0  0  0
    7.1989    1.4994   -0.6481 H   0  0  0  0  0  0  0  0  0  0  0  0
    7.9291   -0.8184   -1.0260 H   0  0  0  0  0  0  0  0  0  0  0  0
    3.9508   -2.2069   -0.0600 H   0  0  0  0  0  0  0  0  0  0  0  0
    7.4927   -3.0609   -0.9530 H   0  0  0  0  0  0  0  0  0  0  0  0
    8.0712   -4.6325   -2.2993 H   0  0  0  0  0  0  0  0  0  0  0  0
    5.8571   -6.3456    0.8421 H   0  0  0  0  0  0  0  0  0  0  0  0
    5.1964   -6.9825   -0.6687 H   0  0  0  0  0  0  0  0  0  0  0  0
    8.4268   -9.8405   -0.3914 H   0  0  0  0  0  0  0  0  0  0  0  0
   10.3603  -10.1052   -1.9233 H   0  0  0  0  0  0  0  0  0  0  0  0
   11.0678   -8.2104   -3.3626 H   0  0  0  0  0  0  0  0  0  0  0  0
    9.8505   -6.0656   -3.2806 H   0  0  0  0  0  0  0  0  0  0  0  0
  1  2  3  0  0  0  0
  1 22  1  0  0  0  0
  2  3  1  0  0  0  0
  3  4  2  0  0  0  0
  3  8  1  0  0  0  0
  4  5  1  0  0  0  0
  4 23  1  0  0  0  0
  5  6  2  0  0  0  0
  5 24  1  0  0  0  0
  6  7  1  0  0  0  0
  6 25  1  0  0  0  0
  7  8  2  0  0  0  0
  7  9  1  0  0  0  0
  8 26  1  0  0  0  0
  9 10  1  0  0  0  0
  9 27  1  0  0  0  0
 10 12  1  0  0  0  0
 10 11  2  0  0  0  0
 12 17  1  0  0  0  0
 12 13  2  0  0  0  0
 13 14  1  0  0  0  0
 13 28  1  0  0  0  0
 14 15  2  0  0  0  0
 14 21  1  0  0  0  0
 15 18  1  0  0  0  0
 15 16  1  0  0  0  0
 16 17  1  0  0  0  0
 17 29  1  0  0  0  0
 17 30  1  0  0  0  0
 18 19  2  0  0  0  0
 18 31  1  0  0  0  0
 19 20  1  0  0  0  0
 19 32  1  0  0  0  0
 20 21  2  0  0  0  0
 20 33  1  0  0  0  0
 21 34  1  0  0  0  0
M  END
$$$$