32077274 32077273
 OpenBabel01151412063D

 36 37  0  0  0  0  0  0  0  0999 V2000
    2.1272    3.9408    2.5660 C   0  0  0  0  0  0  0  0  0  0  0  0
    3.3031    3.7558    2.3989 C   0  0  0  0  0  0  0  0  0  0  0  0
    4.7353    3.5088    2.1975 C   0  0  0  0  0  0  0  0  0  0  0  0
    5.2397    2.6681    3.2425 O   0  0  0  0  0  0  0  0  0  0  0  0
    5.1962    1.3387    2.9860 C   0  0  0  0  0  0  0  0  0  0  0  0
    4.8176    0.8150    1.9507 O   0  0  0  0  0  0  0  0  0  0  0  0
    5.6855    0.5653    4.1598 C   0  0  0  0  0  0  0  0  0  0  0  0
    6.2814    1.1795    5.2680 C   0  0  0  0  0  0  0  0  0  0  0  0
    6.7304    0.4058    6.3390 C   0  0  0  0  0  0  0  0  0  0  0  0
    6.5894   -0.9823    6.3102 C   0  0  0  0  0  0  0  0  0  0  0  0
    5.9980   -1.6168    5.2089 C   0  0  0  0  0  0  0  0  0  0  0  0
    5.5462   -0.8310    4.1366 C   0  0  0  0  0  0  0  0  0  0  0  0
    5.8334   -3.1148    5.1841 C   0  0  0  0  0  0  0  0  0  0  0  0
    4.2708   -3.5547    5.9406 S   0  0  0  0  0  0  0  0  0  0  0  0
    4.3099   -3.2184    7.3528 O   0  0  0  0  0  0  0  0  0  0  0  0
    3.1816   -3.1026    5.0943 O   0  0  0  0  0  0  0  0  0  0  0  0
    4.2936   -5.3346    5.8396 C   0  0  0  0  0  0  0  0  0  0  0  0
    3.7613   -5.9691    4.7137 C   0  0  0  0  0  0  0  0  0  0  0  0
    3.7676   -7.3623    4.6474 C   0  0  0  0  0  0  0  0  0  0  0  0
    4.2928   -8.1107    5.7027 C   0  0  0  0  0  0  0  0  0  0  0  0
    4.8084   -7.4708    6.8314 C   0  0  0  0  0  0  0  0  0  0  0  0
    4.8064   -6.0783    6.9065 C   0  0  0  0  0  0  0  0  0  0  0  0
    1.0828    4.0891    2.7161 H   0  0  0  0  0  0  0  0  0  0  0  0
    5.2842    4.4554    2.2616 H   0  0  0  0  0  0  0  0  0  0  0  0
    4.9420    3.0950    1.2045 H   0  0  0  0  0  0  0  0  0  0  0  0
    6.3995    2.2592    5.3145 H   0  0  0  0  0  0  0  0  0  0  0  0
    7.1845    0.8866    7.2025 H   0  0  0  0  0  0  0  0  0  0  0  0
    6.9328   -1.5634    7.1651 H   0  0  0  0  0  0  0  0  0  0  0  0
    5.0672   -1.3036    3.2787 H   0  0  0  0  0  0  0  0  0  0  0  0
    6.6370   -3.6036    5.7440 H   0  0  0  0  0  0  0  0  0  0  0  0
    5.8388   -3.4936    4.1572 H   0  0  0  0  0  0  0  0  0  0  0  0
    3.3317   -5.3940    3.8961 H   0  0  0  0  0  0  0  0  0  0  0  0
    3.3519   -7.8677    3.7786 H   0  0  0  0  0  0  0  0  0  0  0  0
    4.2874   -9.1972    5.6516 H   0  0  0  0  0  0  0  0  0  0  0  0
    5.2001   -8.0598    7.6575 H   0  0  0  0  0  0  0  0  0  0  0  0
    5.1915   -5.5880    7.7980 H   0  0  0  0  0  0  0  0  0  0  0  0
  1  2  3  0  0  0  0
  1 23  1  0  0  0  0
  2  3  1  0  0  0  0
  3  4  1  0  0  0  0
  3 24  1  0  0  0  0
  3 25  1  0  0  0  0
  4  5  1  0  0  0  0
  5  7  1  0  0  0  0
  5  6  2  0  0  0  0
  7  8  2  0  0  0  0
  7 12  1  0  0  0  0
  8  9  1  0  0  0  0
  8 26  1  0  0  0  0
  9 10  2  0  0  0  0
  9 27  1  0  0  0  0
 10 11  1  0  0  0  0
 10 28  1  0  0  0  0
 11 12  2  0  0  0  0
 11 13  1  0  0  0  0
 12 29  1  0  0  0  0
 13 14  1  0  0  0  0
 13 30  1  0  0  0  0
 13 31  1  0  0  0  0
 14 17  1  0  0  0  0
 14 16  2  0  0  0  0
 14 15  2  0  0  0  0
 17 18  2  0  0  0  0
 17 22  1  0  0  0  0
 18 19  1  0  0  0  0
 18 32  1  0  0  0  0
 19 20  2  0  0  0  0
 19 33  1  0  0  0  0
 20 21  1  0  0  0  0
 20 34  1  0  0  0  0
 21 22  2  0  0  0  0
 21 35  1  0  0  0  0
 22 36  1  0  0  0  0
M  END
$$$$