45684673 45684672
 OpenBabel01151412123D

 29 29  0  0  1  0  0  0  0  0999 V2000
    3.3358    1.6948    2.1863 C   0  0  0  0  0  0  0  0  0  0  0  0
    3.3019    0.9071    1.2762 C   0  0  0  0  0  0  0  0  0  0  0  0
    3.2538   -0.0257    0.1392 C   0  0  0  0  0  0  0  0  0  0  0  0
    4.2239   -1.1311    0.2640 N   0  0  0  0  0  0  0  0  0  0  0  0
    4.0059   -2.2276   -0.7052 C   0  0  3  0  0  0  0  0  0  0  0  0
    2.6830   -2.9951   -0.4956 C   0  0  0  0  0  0  0  0  0  0  0  0
    2.6648   -4.0691   -1.5785 C   0  0  0  0  0  0  0  0  0  0  0  0
    3.3315   -3.2686   -3.0285 S   0  0  0  0  0  0  0  0  0  0  0  0
    2.2327   -2.8039   -3.8505 O   0  0  0  0  0  0  0  0  0  0  0  0
    4.4024   -4.0827   -3.5617 O   0  0  0  0  0  0  0  0  0  0  0  0
    4.0428   -1.8588   -2.1939 C   0  0  0  0  0  0  0  0  0  0  0  0
    5.6108   -0.6033    0.2205 C   0  0  0  0  0  0  0  0  0  0  0  0
    6.7094   -1.6202    0.4370 C   0  0  0  0  0  0  0  0  0  0  0  0
    7.6757   -1.8902   -0.4513 C   0  0  0  0  0  0  0  0  0  0  0  0
    6.7058   -2.4409    1.9635 Cl  0  0  0  0  0  0  0  0  0  0  0  0
    3.3675    2.3920    2.9900 H   0  0  0  0  0  0  0  0  0  0  0  0
    3.4136    0.5343   -0.7898 H   0  0  0  0  0  0  0  0  0  0  0  0
    2.2314   -0.4143    0.1037 H   0  0  0  0  0  0  0  0  0  0  0  0
    4.7837   -2.9845   -0.5355 H   0  0  0  0  0  0  0  0  0  0  0  0
    1.8121   -2.3452   -0.6310 H   0  0  0  0  0  0  0  0  0  0  0  0
    2.6206   -3.4429    0.5015 H   0  0  0  0  0  0  0  0  0  0  0  0
    3.3262   -4.9014   -1.3201 H   0  0  0  0  0  0  0  0  0  0  0  0
    1.6596   -4.4399   -1.7875 H   0  0  0  0  0  0  0  0  0  0  0  0
    5.0577   -1.6950   -2.5634 H   0  0  0  0  0  0  0  0  0  0  0  0
    3.4150   -0.9972   -2.4336 H   0  0  0  0  0  0  0  0  0  0  0  0
    5.7465    0.1510    1.0062 H   0  0  0  0  0  0  0  0  0  0  0  0
    5.7756   -0.0793   -0.7305 H   0  0  0  0  0  0  0  0  0  0  0  0
    7.7209   -1.3850   -1.4103 H   0  0  0  0  0  0  0  0  0  0  0  0
    8.4491   -2.6233   -0.2425 H   0  0  0  0  0  0  0  0  0  0  0  0
  1  2  3  0  0  0  0
  1 16  1  0  0  0  0
  2  3  1  0  0  0  0
  3  4  1  0  0  0  0
  3 17  1  0  0  0  0
  3 18  1  0  0  0  0
  4 12  1  0  0  0  0
  4  5  1  0  0  0  0
  5 11  1  0  0  0  0
  5  6  1  0  0  0  0
  5 19  1  0  0  0  0
  6  7  1  0  0  0  0
  6 20  1  0  0  0  0
  6 21  1  0  0  0  0
  7  8  1  0  0  0  0
  7 22  1  0  0  0  0
  7 23  1  0  0  0  0
  8 11  1  0  0  0  0
  8 10  2  0  0  0  0
  8  9  2  0  0  0  0
 11 24  1  0  0  0  0
 11 25  1  0  0  0  0
 12 13  1  0  0  0  0
 12 26  1  0  0  0  0
 12 27  1  0  0  0  0
 13 15  1  0  0  0  0
 13 14  2  0  0  0  0
 14 28  1  0  0  0  0
 14 29  1  0  0  0  0
M  END
$$$$