17256087 17256086
 OpenBabel01151412063D

 34 34  0  0  1  0  0  0  0  0999 V2000
    0.8988   -0.8573   -1.2765 C   0  0  0  0  0  0  0  0  0  0  0  0
    2.0982   -0.9153   -1.2966 C   0  0  0  0  0  0  0  0  0  0  0  0
    3.5656   -0.9821   -1.3210 C   0  0  0  0  0  0  0  0  0  0  0  0
    4.1015    0.2871   -1.7720 N   0  0  0  0  0  0  0  0  0  0  0  0
    5.4249    0.6984   -1.7874 C   0  0  0  0  0  0  0  0  0  0  0  0
    5.7743    1.8769   -2.3307 C   0  0  0  0  0  0  0  0  0  0  0  0
    7.1664    2.3782   -2.2858 C   0  0  0  0  0  0  0  0  0  0  0  0
    7.4354    3.4598   -2.8042 O   0  0  0  0  0  0  0  0  0  0  0  0
    8.1903    1.5827   -1.5156 C   0  0  0  0  0  0  0  0  0  0  0  0
    7.9072    0.0819   -1.6149 C   0  0  3  0  0  0  0  0  0  0  0  0
    6.4664   -0.2181   -1.1668 C   0  0  0  0  0  0  0  0  0  0  0  0
    8.9555   -0.6978   -0.7936 C   0  0  0  0  0  0  0  0  0  0  0  0
    8.8193   -2.2334   -0.8050 C   0  0  0  0  0  0  0  0  0  0  0  0
    8.9187   -2.8184   -2.2139 C   0  0  0  0  0  0  0  0  0  0  0  0
    9.8992   -2.8518    0.0883 C   0  0  0  0  0  0  0  0  0  0  0  0
   -0.1658   -0.8026   -1.2568 H   0  0  0  0  0  0  0  0  0  0  0  0
    3.8886   -1.7808   -1.9974 H   0  0  0  0  0  0  0  0  0  0  0  0
    3.9369   -1.2155   -0.3171 H   0  0  0  0  0  0  0  0  0  0  0  0
    3.4441    0.8731   -2.2816 H   0  0  0  0  0  0  0  0  0  0  0  0
    5.0551    2.5456   -2.7880 H   0  0  0  0  0  0  0  0  0  0  0  0
    9.1786    1.7997   -1.9371 H   0  0  0  0  0  0  0  0  0  0  0  0
    8.1765    1.9265   -0.4749 H   0  0  0  0  0  0  0  0  0  0  0  0
    8.0025   -0.2026   -2.6717 H   0  0  0  0  0  0  0  0  0  0  0  0
    6.3853   -0.1465   -0.0747 H   0  0  0  0  0  0  0  0  0  0  0  0
    6.2382   -1.2540   -1.4428 H   0  0  0  0  0  0  0  0  0  0  0  0
    8.9118   -0.3529    0.2484 H   0  0  0  0  0  0  0  0  0  0  0  0
    9.9555   -0.4290   -1.1605 H   0  0  0  0  0  0  0  0  0  0  0  0
    7.8480   -2.5140   -0.3811 H   0  0  0  0  0  0  0  0  0  0  0  0
    9.8470   -2.5108   -2.7069 H   0  0  0  0  0  0  0  0  0  0  0  0
    8.0785   -2.4997   -2.8380 H   0  0  0  0  0  0  0  0  0  0  0  0
    8.9006   -3.9133   -2.1819 H   0  0  0  0  0  0  0  0  0  0  0  0
   10.9035   -2.6237   -0.2847 H   0  0  0  0  0  0  0  0  0  0  0  0
    9.7926   -3.9410    0.1306 H   0  0  0  0  0  0  0  0  0  0  0  0
    9.8225   -2.4705    1.1122 H   0  0  0  0  0  0  0  0  0  0  0  0
  1  2  3  0  0  0  0
  1 16  1  0  0  0  0
  2  3  1  0  0  0  0
  3  4  1  0  0  0  0
  3 17  1  0  0  0  0
  3 18  1  0  0  0  0
  4  5  1  0  0  0  0
  4 19  1  0  0  0  0
  5 11  1  0  0  0  0
  5  6  2  0  0  0  0
  6  7  1  0  0  0  0
  6 20  1  0  0  0  0
  7  9  1  0  0  0  0
  7  8  2  0  0  0  0
  9 10  1  0  0  0  0
  9 21  1  0  0  0  0
  9 22  1  0  0  0  0
 10 11  1  0  0  0  0
 10 12  1  0  0  0  0
 10 23  1  0  0  0  0
 11 24  1  0  0  0  0
 11 25  1  0  0  0  0
 12 13  1  0  0  0  0
 12 26  1  0  0  0  0
 12 27  1  0  0  0  0
 13 15  1  0  0  0  0
 13 14  1  0  0  0  0
 13 28  1  0  0  0  0
 14 29  1  0  0  0  0
 14 30  1  0  0  0  0
 14 31  1  0  0  0  0
 15 32  1  0  0  0  0
 15 33  1  0  0  0  0
 15 34  1  0  0  0  0
M  END
$$$$