5846579 5846578
 OpenBabel01151412153D

 37 37  0  0  0  0  0  0  0  0999 V2000
    3.1353    3.2690    1.9107 C   0  0  0  0  0  0  0  0  0  0  0  0
    2.6177    1.9871    1.2635 C   0  0  0  0  0  0  0  0  0  0  0  0
    3.5943    1.2830    0.2738 C   0  0  0  0  0  0  0  0  0  0  0  0
    2.9485    0.0884   -0.2962 N   0  0  0  0  0  0  0  0  0  0  0  0
    2.5843   -0.9974    0.4666 C   0  0  0  0  0  0  0  0  0  0  0  0
    2.7754   -1.0636    1.6726 O   0  0  0  0  0  0  0  0  0  0  0  0
    2.0342   -1.9995   -0.3070 N   0  0  0  0  0  0  0  0  0  0  0  0
    1.5320   -3.2308    0.1892 C   0  0  0  0  0  0  0  0  0  0  0  0
    1.1528   -3.3987    1.5243 C   0  0  0  0  0  0  0  0  0  0  0  0
    0.6871   -4.5556    2.0601 N   0  0  0  0  0  0  0  0  0  0  0  0
    0.5957   -5.6136    1.2396 C   0  0  0  0  0  0  0  0  0  0  0  0
    0.9188   -5.5562   -0.1027 C   0  0  0  0  0  0  0  0  0  0  0  0
    1.3801   -4.3438   -0.6533 C   0  0  0  0  0  0  0  0  0  0  0  0
    1.7162   -4.3385   -2.1174 C   0  0  0  0  0  0  0  0  0  0  0  0
    2.7626   -5.1570   -2.4151 F   0  0  0  0  0  0  0  0  0  0  0  0
    0.6790   -4.7660   -2.8905 F   0  0  0  0  0  0  0  0  0  0  0  0
    2.0560   -3.1108   -2.6086 F   0  0  0  0  0  0  0  0  0  0  0  0
    3.8588    2.2066   -0.8633 C   0  0  0  0  0  0  0  0  0  0  0  0
    4.0918    2.9738   -1.7607 C   0  0  0  0  0  0  0  0  0  0  0  0
    4.9471    0.9340    0.9592 C   0  0  0  0  0  0  0  0  0  0  0  0
    5.9083    0.1147    0.0975 C   0  0  0  0  0  0  0  0  0  0  0  0
    2.3689    3.6805    2.5762 H   0  0  0  0  0  0  0  0  0  0  0  0
    3.3701    4.0345    1.1658 H   0  0  0  0  0  0  0  0  0  0  0  0
    4.0266    3.0838    2.5165 H   0  0  0  0  0  0  0  0  0  0  0  0
    1.6790    2.2215    0.7424 H   0  0  0  0  0  0  0  0  0  0  0  0
    2.3436    1.3046    2.0760 H   0  0  0  0  0  0  0  0  0  0  0  0
    2.4330    0.2316   -1.1522 H   0  0  0  0  0  0  0  0  0  0  0  0
    2.2487   -1.9378   -1.2963 H   0  0  0  0  0  0  0  0  0  0  0  0
    1.1846   -2.5839    2.2421 H   0  0  0  0  0  0  0  0  0  0  0  0
    0.2452   -6.5326    1.7008 H   0  0  0  0  0  0  0  0  0  0  0  0
    0.8193   -6.4481   -0.7163 H   0  0  0  0  0  0  0  0  0  0  0  0
    4.3142    3.6673   -2.5371 H   0  0  0  0  0  0  0  0  0  0  0  0
    4.7706    0.3809    1.8890 H   0  0  0  0  0  0  0  0  0  0  0  0
    5.4704    1.8542    1.2481 H   0  0  0  0  0  0  0  0  0  0  0  0
    5.4854   -0.8587   -0.1679 H   0  0  0  0  0  0  0  0  0  0  0  0
    6.8359   -0.0689    0.6497 H   0  0  0  0  0  0  0  0  0  0  0  0
    6.1714    0.6410   -0.8248 H   0  0  0  0  0  0  0  0  0  0  0  0
  1  2  1  0  0  0  0
  1 22  1  0  0  0  0
  1 23  1  0  0  0  0
  1 24  1  0  0  0  0
  2  3  1  0  0  0  0
  2 25  1  0  0  0  0
  2 26  1  0  0  0  0
  3 20  1  0  0  0  0
  3 18  1  0  0  0  0
  3  4  1  0  0  0  0
  4  5  1  0  0  0  0
  4 27  1  0  0  0  0
  5  7  1  0  0  0  0
  5  6  2  0  0  0  0
  7  8  1  0  0  0  0
  7 28  1  0  0  0  0
  8  9  2  0  0  0  0
  8 13  1  0  0  0  0
  9 10  1  0  0  0  0
  9 29  1  0  0  0  0
 10 11  2  0  0  0  0
 11 12  1  0  0  0  0
 11 30  1  0  0  0  0
 12 13  2  0  0  0  0
 12 31  1  0  0  0  0
 13 14  1  0  0  0  0
 14 17  1  0  0  0  0
 14 16  1  0  0  0  0
 14 15  1  0  0  0  0
 18 19  3  0  0  0  0
 19 32  1  0  0  0  0
 20 21  1  0  0  0  0
 20 33  1  0  0  0  0
 20 34  1  0  0  0  0
 21 35  1  0  0  0  0
 21 36  1  0  0  0  0
 21 37  1  0  0  0  0
M  END
$$$$