43551874 43551873
 OpenBabel01151412073D

 11 10  0  0  0  0  0  0  0  0999 V2000
    0.9654    0.0597    0.0716 C   0  0  0  0  0  0  0  0  0  0  0  0
    2.4579    0.0844    0.0471 C   0  0  0  0  0  0  0  0  0  0  0  0
    3.1613    0.8941   -0.7566 C   0  0  0  0  0  0  0  0  0  0  0  0
    4.5673    0.8941   -0.7566 C   0  0  0  0  0  0  0  0  0  0  0  0
    5.7575    0.8941   -0.7566 C   0  0  0  0  0  0  0  0  0  0  0  0
    0.6173   -0.6769    0.8028 H   0  0  0  0  0  0  0  0  0  0  0  0
    0.5629   -0.2237   -0.9057 H   0  0  0  0  0  0  0  0  0  0  0  0
    0.5629    1.0349    0.3623 H   0  0  0  0  0  0  0  0  0  0  0  0
    2.9734   -0.5955    0.7220 H   0  0  0  0  0  0  0  0  0  0  0  0
    2.6529    1.5754   -1.4329 H   0  0  0  0  0  0  0  0  0  0  0  0
    6.8225    0.8929   -0.7555 H   0  0  0  0  0  0  0  0  0  0  0  0
  1  2  1  0  0  0  0
  1  6  1  0  0  0  0
  1  7  1  0  0  0  0
  1  8  1  0  0  0  0
  2  3  2  3  0  0  0
  2  9  1  0  0  0  0
  3  4  1  0  0  0  0
  3 10  1  0  0  0  0
  4  5  3  0  0  0  0
  5 11  1  0  0  0  0
M  END
$$$$