36667823 36667822
 OpenBabel01151412083D

 41 43  0  0  0  0  0  0  0  0999 V2000
   16.0425   12.0522   -8.6934 C   0  0  0  0  0  0  0  0  0  0  0  0
   16.0523   11.1287   -7.9235 C   0  0  0  0  0  0  0  0  0  0  0  0
   16.0642   10.0371   -6.9989 C   0  0  0  0  0  0  0  0  0  0  0  0
   15.2438    8.9298   -7.2131 C   0  0  0  0  0  0  0  0  0  0  0  0
   15.2392    7.8825   -6.2938 C   0  0  0  0  0  0  0  0  0  0  0  0
   16.0605    7.9402   -5.1653 C   0  0  0  0  0  0  0  0  0  0  0  0
   16.9084    9.0357   -4.9488 C   0  0  0  0  0  0  0  0  0  0  0  0
   16.8952   10.0865   -5.8737 C   0  0  0  0  0  0  0  0  0  0  0  0
   17.7879    9.0563   -3.8133 N   0  0  0  0  0  0  0  0  0  0  0  0
   17.2254    8.8057   -2.5326 C   0  0  0  0  0  0  0  0  0  0  0  0
   16.0240    8.5615   -2.3847 O   0  0  0  0  0  0  0  0  0  0  0  0
   18.0725    8.8440   -1.3168 C   0  0  0  0  0  0  0  0  0  0  0  0
   17.6289    8.3477   -0.1009 C   0  0  0  0  0  0  0  0  0  0  0  0
   18.8122    8.5501    1.1152 S   0  0  0  0  0  0  0  0  0  0  0  0
   19.8640    9.2932   -0.0320 C   0  0  0  0  0  0  0  0  0  0  0  0
   19.3447    9.4034   -1.2442 N   0  0  0  0  0  0  0  0  0  0  0  0
   21.2244    9.7136    0.3579 C   0  0  0  0  0  0  0  0  0  0  0  0
   21.4965    9.8869    1.6683 N   0  0  0  0  0  0  0  0  0  0  0  0
   22.7556   10.2560    1.9677 C   0  0  0  0  0  0  0  0  0  0  0  0
   23.7375   10.4456    1.0237 C   0  0  0  0  0  0  0  0  0  0  0  0
   23.3571   10.2415   -0.2816 C   0  0  0  0  0  0  0  0  0  0  0  0
   22.1135    9.8809   -0.6448 N   0  0  0  0  0  0  0  0  0  0  0  0
   19.2453    9.2301   -4.0667 C   0  0  0  0  0  0  0  0  0  0  0  0
   19.7522    8.5652   -5.3575 C   0  0  0  0  0  0  0  0  0  0  0  0
   19.7010   10.6899   -3.9904 C   0  0  0  0  0  0  0  0  0  0  0  0
   16.0324   12.8731   -9.3709 H   0  0  0  0  0  0  0  0  0  0  0  0
   14.5994    8.8808   -8.0872 H   0  0  0  0  0  0  0  0  0  0  0  0
   14.5976    7.0197   -6.4522 H   0  0  0  0  0  0  0  0  0  0  0  0
   16.0486    7.1058   -4.4678 H   0  0  0  0  0  0  0  0  0  0  0  0
   17.4989   10.9720   -5.7126 H   0  0  0  0  0  0  0  0  0  0  0  0
   16.6768    7.8819    0.1153 H   0  0  0  0  0  0  0  0  0  0  0  0
   22.9587   10.3979    3.0255 H   0  0  0  0  0  0  0  0  0  0  0  0
   24.7440   10.7364    1.2905 H   0  0  0  0  0  0  0  0  0  0  0  0
   24.0620   10.3635   -1.0990 H   0  0  0  0  0  0  0  0  0  0  0  0
   19.7691    8.6709   -3.2887 H   0  0  0  0  0  0  0  0  0  0  0  0
   19.3969    9.0684   -6.2609 H   0  0  0  0  0  0  0  0  0  0  0  0
   19.4356    7.5172   -5.4023 H   0  0  0  0  0  0  0  0  0  0  0  0
   20.8474    8.5831   -5.3870 H   0  0  0  0  0  0  0  0  0  0  0  0
   19.4356   11.2518   -4.8896 H   0  0  0  0  0  0  0  0  0  0  0  0
   20.7915   10.7408   -3.8971 H   0  0  0  0  0  0  0  0  0  0  0  0
   19.2623   11.2118   -3.1348 H   0  0  0  0  0  0  0  0  0  0  0  0
  1  2  3  0  0  0  0
  1 26  1  0  0  0  0
  2  3  1  0  0  0  0
  3  4  2  0  0  0  0
  3  8  1  0  0  0  0
  4  5  1  0  0  0  0
  4 27  1  0  0  0  0
  5  6  2  0  0  0  0
  5 28  1  0  0  0  0
  6  7  1  0  0  0  0
  6 29  1  0  0  0  0
  7  8  2  0  0  0  0
  7  9  1  0  0  0  0
  8 30  1  0  0  0  0
  9 23  1  0  0  0  0
  9 10  1  0  0  0  0
 10 12  1  0  0  0  0
 10 11  2  0  0  0  0
 12 13  2  0  0  0  0
 12 16  1  0  0  0  0
 13 14  1  0  0  0  0
 13 31  1  0  0  0  0
 14 15  1  0  0  0  0
 15 16  2  0  0  0  0
 15 17  1  0  0  0  0
 17 18  2  0  0  0  0
 17 22  1  0  0  0  0
 18 19  1  0  0  0  0
 19 20  2  0  0  0  0
 19 32  1  0  0  0  0
 20 21  1  0  0  0  0
 20 33  1  0  0  0  0
 21 22  2  0  0  0  0
 21 34  1  0  0  0  0
 23 25  1  0  0  0  0
 23 24  1  0  0  0  0
 23 35  1  0  0  0  0
 24 36  1  0  0  0  0
 24 37  1  0  0  0  0
 24 38  1  0  0  0  0
 25 39  1  0  0  0  0
 25 40  1  0  0  0  0
 25 41  1  0  0  0  0
M  END
$$$$