514699 514698
 OpenBabel01151412073D

 15 14  0  0  1  0  0  0  0  0999 V2000
    1.0339   -0.1845    0.1361 C   0  0  0  0  0  0  0  0  0  0  0  0
    2.5583   -0.0775    0.0503 C   0  0  3  0  0  0  0  0  0  0  0  0
    3.0396   -0.6329   -1.1926 C   0  0  0  0  0  0  0  0  0  0  0  0
    3.4363   -1.0906   -2.2171 C   0  0  0  0  0  0  0  0  0  0  0  0
    2.9901    1.3701    0.1496 C   0  0  0  0  0  0  0  0  0  0  0  0
    3.8841    1.8972    1.0006 C   0  0  0  0  0  0  0  0  0  0  0  0
    3.1082   -0.8286    1.1286 O   0  0  0  0  0  0  0  0  0  0  0  0
    0.6613    0.2245    1.0834 H   0  0  0  0  0  0  0  0  0  0  0  0
    0.7125   -1.2333    0.1051 H   0  0  0  0  0  0  0  0  0  0  0  0
    0.5355    0.3444   -0.6850 H   0  0  0  0  0  0  0  0  0  0  0  0
    3.8005   -1.5060   -3.1279 H   0  0  0  0  0  0  0  0  0  0  0  0
    2.5213    2.0435   -0.5677 H   0  0  0  0  0  0  0  0  0  0  0  0
    4.4221    1.2891    1.7212 H   0  0  0  0  0  0  0  0  0  0  0  0
    4.1222    2.9562    0.9676 H   0  0  0  0  0  0  0  0  0  0  0  0
    2.7885   -0.4129    1.9450 H   0  0  0  0  0  0  0  0  0  0  0  0
  1  2  1  0  0  0  0
  1  8  1  0  0  0  0
  1  9  1  0  0  0  0
  1 10  1  0  0  0  0
  2  7  1  0  0  0  0
  2  5  1  0  0  0  0
  2  3  1  0  0  0  0
  3  4  3  0  0  0  0
  4 11  1  0  0  0  0
  5  6  2  0  0  0  0
  5 12  1  0  0  0  0
  6 13  1  0  0  0  0
  6 14  1  0  0  0  0
  7 15  1  0  0  0  0
M  END
$$$$