46021034 46021033
 OpenBabel01151412103D

 45 45  0  0  1  0  0  0  0  0999 V2000
   -0.2044    0.5331   -7.0160 C   0  0  0  0  0  0  0  0  0  0  0  0
   -0.2250    1.5947   -5.9279 C   0  0  0  0  0  0  0  0  0  0  0  0
   -0.4823    1.0559   -4.5124 C   0  0  3  0  0  0  0  0  0  0  0  0
   -0.5025    2.1911   -3.6524 O   0  0  0  0  0  0  0  0  0  0  0  0
   -0.3881    2.0425   -2.0557 P   0  0  3  0  0  0  0  0  0  0  0  0
    0.1630    0.7237   -1.5943 O   0  0  0  0  0  0  0  0  0  0  0  0
    0.4882    3.5173   -1.4074 C   0  0  3  0  0  0  0  0  0  0  0  0
   -0.3520    4.7406   -1.8338 C   0  0  0  0  0  0  0  0  0  0  0  0
   -1.4238    4.9186   -1.0204 F   0  0  0  0  0  0  0  0  0  0  0  0
    0.3514    5.8993   -1.8119 F   0  0  0  0  0  0  0  0  0  0  0  0
   -0.8335    4.6383   -3.0944 F   0  0  0  0  0  0  0  0  0  0  0  0
    0.6005    3.3157    0.0634 N   0  0  0  0  0  0  0  0  0  0  0  0
    0.9457    4.3128    0.9163 C   0  0  0  0  0  0  0  0  0  0  0  0
    1.1646    5.4628    0.5779 O   0  0  0  0  0  0  0  0  0  0  0  0
    1.0121    3.8393    2.1797 O   0  0  0  0  0  0  0  0  0  0  0  0
    1.3118    4.8208    3.1867 C   0  0  0  0  0  0  0  0  0  0  0  0
    2.7310    4.6743    3.6801 C   0  0  0  0  0  0  0  0  0  0  0  0
    3.8129    4.7491    2.7902 C   0  0  0  0  0  0  0  0  0  0  0  0
    5.1250    4.6404    3.2542 C   0  0  0  0  0  0  0  0  0  0  0  0
    5.3721    4.4709    4.6144 C   0  0  0  0  0  0  0  0  0  0  0  0
    4.3080    4.4140    5.5119 C   0  0  0  0  0  0  0  0  0  0  0  0
    2.9946    4.5170    5.0485 C   0  0  0  0  0  0  0  0  0  0  0  0
    1.8683    3.5683   -1.9617 C   0  0  0  0  0  0  0  0  0  0  0  0
    2.9931    3.6085   -2.3808 C   0  0  0  0  0  0  0  0  0  0  0  0
   -1.9236    2.1706   -1.5888 O   0  0  0  0  0  0  0  0  0  0  0  0
   -1.8089    0.3139   -4.4049 C   0  0  0  0  0  0  0  0  0  0  0  0
    0.5013   -0.2676   -6.7754 H   0  0  0  0  0  0  0  0  0  0  0  0
    0.0987    0.9787   -7.9693 H   0  0  0  0  0  0  0  0  0  0  0  0
   -1.1950    0.0929   -7.1647 H   0  0  0  0  0  0  0  0  0  0  0  0
   -0.9757    2.3556   -6.1779 H   0  0  0  0  0  0  0  0  0  0  0  0
    0.7362    2.1250   -5.9305 H   0  0  0  0  0  0  0  0  0  0  0  0
    0.3438    0.3973   -4.2222 H   0  0  0  0  0  0  0  0  0  0  0  0
    0.5272    2.3810    0.4481 H   0  0  0  0  0  0  0  0  0  0  0  0
    0.6073    4.6417    4.0070 H   0  0  0  0  0  0  0  0  0  0  0  0
    1.1382    5.8522    2.8556 H   0  0  0  0  0  0  0  0  0  0  0  0
    3.6425    4.9019    1.7265 H   0  0  0  0  0  0  0  0  0  0  0  0
    5.9534    4.6951    2.5528 H   0  0  0  0  0  0  0  0  0  0  0  0
    6.3939    4.3899    4.9752 H   0  0  0  0  0  0  0  0  0  0  0  0
    4.5008    4.2930    6.5746 H   0  0  0  0  0  0  0  0  0  0  0  0
    2.1787    4.4783    5.7668 H   0  0  0  0  0  0  0  0  0  0  0  0
    3.9977    3.6536   -2.7370 H   0  0  0  0  0  0  0  0  0  0  0  0
   -2.4400    1.3586   -1.7503 H   0  0  0  0  0  0  0  0  0  0  0  0
   -2.6476    0.9794   -4.6365 H   0  0  0  0  0  0  0  0  0  0  0  0
   -1.9667   -0.0515   -3.3860 H   0  0  0  0  0  0  0  0  0  0  0  0
   -1.8491   -0.5526   -5.0702 H   0  0  0  0  0  0  0  0  0  0  0  0
  1  2  1  0  0  0  0
  1 27  1  0  0  0  0
  1 28  1  0  0  0  0
  1 29  1  0  0  0  0
  2  3  1  0  0  0  0
  2 30  1  0  0  0  0
  2 31  1  0  0  0  0
  3 26  1  0  0  0  0
  3  4  1  0  0  0  0
  3 32  1  0  0  0  0
  4  5  1  0  0  0  0
  5 25  1  0  0  0  0
  5  7  1  0  0  0  0
  5  6  2  0  0  0  0
  7 23  1  0  0  0  0
  7 12  1  0  0  0  0
  7  8  1  0  0  0  0
  8 11  1  0  0  0  0
  8 10  1  0  0  0  0
  8  9  1  0  0  0  0
 12 13  1  0  0  0  0
 12 33  1  0  0  0  0
 13 15  1  0  0  0  0
 13 14  2  0  0  0  0
 15 16  1  0  0  0  0
 16 17  1  0  0  0  0
 16 34  1  0  0  0  0
 16 35  1  0  0  0  0
 17 18  2  0  0  0  0
 17 22  1  0  0  0  0
 18 19  1  0  0  0  0
 18 36  1  0  0  0  0
 19 20  2  0  0  0  0
 19 37  1  0  0  0  0
 20 21  1  0  0  0  0
 20 38  1  0  0  0  0
 21 22  2  0  0  0  0
 21 39  1  0  0  0  0
 22 40  1  0  0  0  0
 23 24  3  0  0  0  0
 24 41  1  0  0  0  0
 25 42  1  0  0  0  0
 26 43  1  0  0  0  0
 26 44  1  0  0  0  0
 26 45  1  0  0  0  0
M  END
$$$$