25932391 25932390
 OpenBabel01151412163D

 27 28  0  0  0  0  0  0  0  0999 V2000
    1.4057    1.1706    0.9618 C   0  0  0  0  0  0  0  0  0  0  0  0
    2.5677    1.4284    1.1225 C   0  0  0  0  0  0  0  0  0  0  0  0
    3.9904    1.7411    1.3238 C   0  0  0  0  0  0  0  0  0  0  0  0
    4.7130    0.5191    1.4631 O   0  0  0  0  0  0  0  0  0  0  0  0
    6.0647    0.6046    1.6495 C   0  0  0  0  0  0  0  0  0  0  0  0
    6.8112    1.7781    1.7700 C   0  0  0  0  0  0  0  0  0  0  0  0
    8.1963    1.7136    1.9594 C   0  0  0  0  0  0  0  0  0  0  0  0
    8.8423    0.4785    2.0265 C   0  0  0  0  0  0  0  0  0  0  0  0
    8.0958   -0.6945    1.9048 C   0  0  0  0  0  0  0  0  0  0  0  0
    6.7126   -0.6316    1.7206 C   0  0  0  0  0  0  0  0  0  0  0  0
    8.7379   -2.0263    1.9550 C   0  0  0  0  0  0  0  0  0  0  0  0
   10.0160   -2.1579    2.0972 N   0  0  0  0  0  0  0  0  0  0  0  0
   10.5195   -3.4292    2.1130 N   0  0  0  0  0  0  0  0  0  0  0  0
   11.8499   -3.7166    2.2773 C   0  0  0  0  0  0  0  0  0  0  0  0
   12.0545   -5.0143    2.2446 N   0  0  0  0  0  0  0  0  0  0  0  0
   10.8361   -5.6155    2.0531 N   0  0  0  0  0  0  0  0  0  0  0  0
    9.9330   -4.6627    1.9749 C   0  0  0  0  0  0  0  0  0  0  0  0
    0.3753    0.9349    0.8209 H   0  0  0  0  0  0  0  0  0  0  0  0
    4.0983    2.3472    2.2302 H   0  0  0  0  0  0  0  0  0  0  0  0
    4.3622    2.3002    0.4578 H   0  0  0  0  0  0  0  0  0  0  0  0
    6.3512    2.7598    1.7231 H   0  0  0  0  0  0  0  0  0  0  0  0
    8.7737    2.6304    2.0535 H   0  0  0  0  0  0  0  0  0  0  0  0
    9.9191    0.4400    2.1709 H   0  0  0  0  0  0  0  0  0  0  0  0
    6.1211   -1.5390    1.6250 H   0  0  0  0  0  0  0  0  0  0  0  0
    8.0434   -2.8780    1.8587 H   0  0  0  0  0  0  0  0  0  0  0  0
   12.5969   -2.9501    2.4106 H   0  0  0  0  0  0  0  0  0  0  0  0
    8.8788   -4.8241    1.8207 H   0  0  0  0  0  0  0  0  0  0  0  0
  1  2  3  0  0  0  0
  1 18  1  0  0  0  0
  2  3  1  0  0  0  0
  3  4  1  0  0  0  0
  3 19  1  0  0  0  0
  3 20  1  0  0  0  0
  4  5  1  0  0  0  0
  5  6  2  0  0  0  0
  5 10  1  0  0  0  0
  6  7  1  0  0  0  0
  6 21  1  0  0  0  0
  7  8  2  0  0  0  0
  7 22  1  0  0  0  0
  8  9  1  0  0  0  0
  8 23  1  0  0  0  0
  9 10  2  0  0  0  0
  9 11  1  0  0  0  0
 10 24  1  0  0  0  0
 11 12  2  0  0  0  0
 11 25  1  0  0  0  0
 12 13  1  0  0  0  0
 13 14  1  0  0  0  0
 13 17  1  0  0  0  0
 14 15  2  0  0  0  0
 14 26  1  0  0  0  0
 15 16  1  0  0  0  0
 16 17  2  0  0  0  0
 17 27  1  0  0  0  0
M  END
$$$$