20422865 20422864
 OpenBabel01151412113D

 64 65  0  0  1  0  0  0  0  0999 V2000
    5.0201   -0.5802    7.1820 C   0  0  0  0  0  0  0  0  0  0  0  0
    5.1444    0.5324    7.9197 C   0  0  0  0  0  0  0  0  0  0  0  0
    6.4300    1.2443    8.2711 C   0  0  0  0  0  0  0  0  0  0  0  0
    6.5053    2.6747    7.8981 N   0  0  0  0  0  0  0  0  0  0  0  0
    6.7455    2.7335    6.4383 C   0  0  0  0  0  0  0  0  0  0  0  0
    6.8669    4.0746    5.7570 C   0  0  0  0  0  0  0  0  0  0  0  0
    7.1633    5.2593    6.4312 C   0  0  0  0  0  0  0  0  0  0  0  0
    7.1269    6.4573    5.7392 C   0  0  0  0  0  0  0  0  0  0  0  0
    6.9175    6.4922    4.3450 C   0  0  0  0  0  0  0  0  0  0  0  0
    6.3330    5.3955    3.7765 C   0  0  0  0  0  0  0  0  0  0  0  0
    6.5196    4.1543    4.3827 C   0  0  0  0  0  0  0  0  0  0  0  0
    5.5431    5.5260    2.6974 O   0  0  0  0  0  0  0  0  0  0  0  0
    4.6695    6.6785    2.6062 C   0  0  0  0  0  0  0  0  0  0  0  0
    4.3330    7.8808    3.6896 C   0  0  3  0  0  0  0  0  0  0  0  0
    5.2943    9.0202    4.2252 C   0  0  0  0  0  0  0  0  0  0  0  0
    5.0885    9.7501    5.5332 N   0  0  0  0  0  0  0  0  0  0  0  0
    6.4019   10.1362    6.1789 C   0  0  0  0  0  0  0  0  0  0  0  0
    6.2866   10.4897    7.6769 C   0  0  0  0  0  0  0  0  0  0  0  0
    5.9122   11.9524    7.9329 C   0  0  0  0  0  0  0  0  0  0  0  0
    5.1508   12.6097    6.8727 N   0  0  0  0  0  0  0  0  0  0  0  0
    3.9731   11.8603    6.4186 C   0  0  0  0  0  0  0  0  0  0  0  0
    4.3436   10.9864    5.2235 C   0  0  0  0  0  0  0  0  0  0  0  0
    4.7714   13.9596    7.2445 C   0  0  0  0  0  0  0  0  0  0  0  0
    3.3115    8.6528    2.9775 O   0  0  0  0  0  0  0  0  0  0  0  0
    7.5190    7.5595    3.6826 O   0  0  0  0  0  0  0  0  0  0  0  0
    7.2153    8.0853    2.3500 C   0  0  0  0  0  0  0  0  0  0  0  0
    5.3401    3.4458    8.3340 C   0  0  0  0  0  0  0  0  0  0  0  0
    5.2563    3.5332    9.8514 C   0  0  0  0  0  0  0  0  0  0  0  0
    5.1771    3.6236   10.9452 C   0  0  0  0  0  0  0  0  0  0  0  0
    4.0322   -1.0086    7.0245 H   0  0  0  0  0  0  0  0  0  0  0  0
    5.8653   -1.0914    6.7391 H   0  0  0  0  0  0  0  0  0  0  0  0
    4.2321    0.9442    8.3421 H   0  0  0  0  0  0  0  0  0  0  0  0
    7.2771    0.7062    7.8074 H   0  0  0  0  0  0  0  0  0  0  0  0
    6.6065    1.1365    9.3477 H   0  0  0  0  0  0  0  0  0  0  0  0
    5.9276    2.2294    5.9282 H   0  0  0  0  0  0  0  0  0  0  0  0
    7.6741    2.1958    6.2011 H   0  0  0  0  0  0  0  0  0  0  0  0
    7.3888    5.3051    7.4901 H   0  0  0  0  0  0  0  0  0  0  0  0
    7.2023    7.3926    6.2785 H   0  0  0  0  0  0  0  0  0  0  0  0
    6.3376    3.2310    3.8172 H   0  0  0  0  0  0  0  0  0  0  0  0
    4.8441    7.0475    1.5853 H   0  0  0  0  0  0  0  0  0  0  0  0
    3.6911    6.1967    2.4540 H   0  0  0  0  0  0  0  0  0  0  0  0
    3.8488    7.3897    4.5428 H   0  0  0  0  0  0  0  0  0  0  0  0
    5.4382    9.7836    3.4513 H   0  0  0  0  0  0  0  0  0  0  0  0
    6.2689    8.7113    4.4131 H   0  0  0  0  0  0  0  0  0  0  0  0
    6.9205   10.9491    5.6544 H   0  0  0  0  0  0  0  0  0  0  0  0
    7.1234    9.3164    6.1533 H   0  0  0  0  0  0  0  0  0  0  0  0
    5.5918    9.8109    8.1904 H   0  0  0  0  0  0  0  0  0  0  0  0
    7.2515   10.3242    8.1906 H   0  0  0  0  0  0  0  0  0  0  0  0
    5.3965   12.0303    8.9010 H   0  0  0  0  0  0  0  0  0  0  0  0
    6.8559   12.5059    8.0521 H   0  0  0  0  0  0  0  0  0  0  0  0
    3.4679   11.3081    7.2252 H   0  0  0  0  0  0  0  0  0  0  0  0
    3.2244   12.5618    6.0214 H   0  0  0  0  0  0  0  0  0  0  0  0
    3.3997   10.7262    4.7265 H   0  0  0  0  0  0  0  0  0  0  0  0
    4.9086   11.6096    4.5093 H   0  0  0  0  0  0  0  0  0  0  0  0
    4.3866   14.4842    6.3622 H   0  0  0  0  0  0  0  0  0  0  0  0
    5.6328   14.5318    7.6019 H   0  0  0  0  0  0  0  0  0  0  0  0
    3.9973   13.9381    8.0156 H   0  0  0  0  0  0  0  0  0  0  0  0
    2.4974    8.1245    3.0070 H   0  0  0  0  0  0  0  0  0  0  0  0
    7.4820    9.1661    2.3909 H   0  0  0  0  0  0  0  0  0  0  0  0
    6.1725    8.2166    1.9357 H   0  0  0  0  0  0  0  0  0  0  0  0
    7.9329    7.5944    1.7147 H   0  0  0  0  0  0  0  0  0  0  0  0
    4.4421    3.0623    7.9468 H   0  0  0  0  0  0  0  0  0  0  0  0
    5.3723    4.4606    8.0247 H   0  0  0  0  0  0  0  0  0  0  0  0
    5.1029    3.7459   12.1071 H   0  0  0  0  0  0  0  0  0  0  0  0
  1  2  2  0  0  0  0
  1 30  1  0  0  0  0
  1 31  1  0  0  0  0
  2  3  1  0  0  0  0
  2 32  1  0  0  0  0
  3  4  1  0  0  0  0
  3 33  1  0  0  0  0
  3 34  1  0  0  0  0
  4 27  1  0  0  0  0
  4  5  1  0  0  0  0
  5  6  1  0  0  0  0
  5 35  1  0  0  0  0
  5 36  1  0  0  0  0
  6  7  2  0  0  0  0
  6 11  1  0  0  0  0
  7  8  1  0  0  0  0
  7 37  1  0  0  0  0
  8  9  2  0  0  0  0
  8 38  1  0  0  0  0
  9 10  1  0  0  0  0
  9 25  1  0  0  0  0
 10 11  2  0  0  0  0
 10 12  1  0  0  0  0
 11 39  1  0  0  0  0
 12 13  1  0  0  0  0
 13 14  1  0  0  0  0
 13 40  1  0  0  0  0
 13 41  1  0  0  0  0
 14 24  1  0  0  0  0
 14 15  1  0  0  0  0
 14 42  1  0  0  0  0
 15 16  1  0  0  0  0
 15 43  1  0  0  0  0
 15 44  1  0  0  0  0
 16 22  1  0  0  0  0
 16 17  1  0  0  0  0
 17 18  1  0  0  0  0
 17 45  1  0  0  0  0
 17 46  1  0  0  0  0
 18 19  1  0  0  0  0
 18 47  1  0  0  0  0
 18 48  1  0  0  0  0
 19 20  1  0  0  0  0
 19 49  1  0  0  0  0
 19 50  1  0  0  0  0
 20 21  1  0  0  0  0
 20 23  1  0  0  0  0
 21 22  1  0  0  0  0
 21 51  1  0  0  0  0
 21 52  1  0  0  0  0
 22 53  1  0  0  0  0
 22 54  1  0  0  0  0
 23 55  1  0  0  0  0
 23 56  1  0  0  0  0
 23 57  1  0  0  0  0
 24 58  1  0  0  0  0
 25 26  1  0  0  0  0
 26 59  1  0  0  0  0
 26 60  1  0  0  0  0
 26 61  1  0  0  0  0
 27 28  1  0  0  0  0
 27 62  1  0  0  0  0
 27 63  1  0  0  0  0
 28 29  3  0  0  0  0
 29 64  1  0  0  0  0
M  END
$$$$