36657664 36657663
 OpenBabel01151412173D

 33 35  0  0  0  0  0  0  0  0999 V2000
    9.8285   -6.4501    2.0919 C   0  0  0  0  0  0  0  0  0  0  0  0
    8.9310   -5.6549    2.0089 C   0  0  0  0  0  0  0  0  0  0  0  0
    7.8443   -4.6810    1.8857 C   0  0  0  0  0  0  0  0  0  0  0  0
    7.7385   -4.2494    0.5183 N   0  0  0  0  0  0  0  0  0  0  0  0
    6.7214   -3.4196    0.1085 C   0  0  0  0  0  0  0  0  0  0  0  0
    5.7666   -3.1258    0.8260 O   0  0  0  0  0  0  0  0  0  0  0  0
    6.8176   -2.9604   -1.3355 C   0  0  0  0  0  0  0  0  0  0  0  0
    8.1387   -2.3335   -1.6485 C   0  0  0  0  0  0  0  0  0  0  0  0
    8.3675   -1.0207   -2.0073 C   0  0  0  0  0  0  0  0  0  0  0  0
   10.0359   -0.7689   -2.2897 S   0  0  0  0  0  0  0  0  0  0  0  0
   10.3531   -2.4247   -1.9288 C   0  0  0  0  0  0  0  0  0  0  0  0
    9.2833   -3.1229   -1.5937 N   0  0  0  0  0  0  0  0  0  0  0  0
   11.7209   -2.9743   -1.9532 C   0  0  0  0  0  0  0  0  0  0  0  0
   12.7303   -2.4656   -2.8080 C   0  0  0  0  0  0  0  0  0  0  0  0
   14.0199   -3.0129   -2.8205 C   0  0  0  0  0  0  0  0  0  0  0  0
   14.2769   -4.0674   -1.9746 C   0  0  0  0  0  0  0  0  0  0  0  0
   13.3090   -4.5780   -1.1448 C   0  0  0  0  0  0  0  0  0  0  0  0
   12.0299   -4.0611   -1.1137 C   0  0  0  0  0  0  0  0  0  0  0  0
   13.7654   -5.6165   -0.3942 O   0  0  0  0  0  0  0  0  0  0  0  0
   15.1320   -5.7015   -0.8500 C   0  0  0  0  0  0  0  0  0  0  0  0
   15.4633   -4.7194   -1.8537 O   0  0  0  0  0  0  0  0  0  0  0  0
   10.6246   -7.1550    2.1559 H   0  0  0  0  0  0  0  0  0  0  0  0
    8.0366   -3.8001    2.5074 H   0  0  0  0  0  0  0  0  0  0  0  0
    6.8882   -5.1146    2.1968 H   0  0  0  0  0  0  0  0  0  0  0  0
    8.5837   -4.2427   -0.0518 H   0  0  0  0  0  0  0  0  0  0  0  0
    6.0072   -2.2464   -1.5229 H   0  0  0  0  0  0  0  0  0  0  0  0
    6.6513   -3.8266   -1.9858 H   0  0  0  0  0  0  0  0  0  0  0  0
    7.6525   -0.2172   -2.1160 H   0  0  0  0  0  0  0  0  0  0  0  0
   12.5196   -1.6432   -3.4886 H   0  0  0  0  0  0  0  0  0  0  0  0
   14.7895   -2.6237   -3.4778 H   0  0  0  0  0  0  0  0  0  0  0  0
   11.2870   -4.4902   -0.4486 H   0  0  0  0  0  0  0  0  0  0  0  0
   15.3010   -6.7006   -1.2678 H   0  0  0  0  0  0  0  0  0  0  0  0
   15.7981   -5.5625    0.0095 H   0  0  0  0  0  0  0  0  0  0  0  0
  1  2  3  0  0  0  0
  1 22  1  0  0  0  0
  2  3  1  0  0  0  0
  3  4  1  0  0  0  0
  3 23  1  0  0  0  0
  3 24  1  0  0  0  0
  4  5  1  0  0  0  0
  4 25  1  0  0  0  0
  5  7  1  0  0  0  0
  5  6  2  0  0  0  0
  7  8  1  0  0  0  0
  7 26  1  0  0  0  0
  7 27  1  0  0  0  0
  8  9  2  0  0  0  0
  8 12  1  0  0  0  0
  9 10  1  0  0  0  0
  9 28  1  0  0  0  0
 10 11  1  0  0  0  0
 11 12  2  0  0  0  0
 11 13  1  0  0  0  0
 13 14  2  0  0  0  0
 13 18  1  0  0  0  0
 14 15  1  0  0  0  0
 14 29  1  0  0  0  0
 15 16  2  0  0  0  0
 15 30  1  0  0  0  0
 16 17  1  0  0  0  0
 16 21  1  0  0  0  0
 17 18  2  0  0  0  0
 17 19  1  0  0  0  0
 18 31  1  0  0  0  0
 19 20  1  0  0  0  0
 20 21  1  0  0  0  0
 20 32  1  0  0  0  0
 20 33  1  0  0  0  0
M  END
$$$$