31417603 31417602
 OpenBabel01151412093D

 16 16  0  0  0  0  0  0  0  0999 V2000
   11.4075   -3.7735    2.8486 S   0  0  0  0  0  0  0  0  0  0  0  0
    9.9570   -3.6198    3.4904 C   0  0  0  0  0  0  0  0  0  0  0  0
    8.9008   -3.5062    3.9942 N   0  0  0  0  0  0  0  0  0  0  0  0
    7.8614   -3.4506    3.0478 C   0  0  0  0  0  0  0  0  0  0  0  0
    7.4035   -2.2145    2.5720 C   0  0  0  0  0  0  0  0  0  0  0  0
    6.3531   -2.1512    1.6547 C   0  0  0  0  0  0  0  0  0  0  0  0
    5.7409   -3.3255    1.2165 C   0  0  0  0  0  0  0  0  0  0  0  0
    6.1724   -4.5617    1.7016 C   0  0  0  0  0  0  0  0  0  0  0  0
    7.2238   -4.6228    2.6201 C   0  0  0  0  0  0  0  0  0  0  0  0
    5.5361   -5.7652    1.2620 C   0  0  0  0  0  0  0  0  0  0  0  0
    5.0028   -6.7761    0.8933 C   0  0  0  0  0  0  0  0  0  0  0  0
    7.8664   -1.2946    2.9213 H   0  0  0  0  0  0  0  0  0  0  0  0
    6.0085   -1.1878    1.2872 H   0  0  0  0  0  0  0  0  0  0  0  0
    4.9215   -3.2703    0.5032 H   0  0  0  0  0  0  0  0  0  0  0  0
    7.5501   -5.5841    3.0098 H   0  0  0  0  0  0  0  0  0  0  0  0
    4.5300   -7.6729    0.5669 H   0  0  0  0  0  0  0  0  0  0  0  0
  1  2  2  0  0  0  0
  2  3  2  0  0  0  0
  3  4  1  0  0  0  0
  4  5  2  0  0  0  0
  4  9  1  0  0  0  0
  5  6  1  0  0  0  0
  5 12  1  0  0  0  0
  6  7  2  0  0  0  0
  6 13  1  0  0  0  0
  7  8  1  0  0  0  0
  7 14  1  0  0  0  0
  8  9  2  0  0  0  0
  8 10  1  0  0  0  0
  9 15  1  0  0  0  0
 10 11  3  0  0  0  0
 11 16  1  0  0  0  0
M  END
$$$$