44229581 44229580
 OpenBabel01151412093D

 36 36  0  0  0  0  0  0  0  0999 V2000
    1.0193   -0.1168   -0.5551 C   0  0  0  0  0  0  0  0  0  0  0  0
    2.2115   -0.0273   -0.4508 C   0  0  0  0  0  0  0  0  0  0  0  0
    3.6848    0.0837   -0.3161 C   0  0  0  0  0  0  0  0  0  0  0  0
    4.3546   -1.2829   -0.6062 C   0  0  0  0  0  0  0  0  0  0  0  0
    3.9704   -2.4090    0.3605 C   0  0  0  0  0  0  0  0  0  0  0  0
    4.6304   -3.7252   -0.0157 C   0  0  0  0  0  0  0  0  0  0  0  0
    5.7065   -3.7651   -0.6174 O   0  0  0  0  0  0  0  0  0  0  0  0
    3.9141   -5.0052    0.3461 C   0  0  0  0  0  0  0  0  0  0  0  0
    3.7014   -5.2063    1.8251 C   0  0  0  0  0  0  0  0  0  0  0  0
    3.6611   -4.2710    2.6209 O   0  0  0  0  0  0  0  0  0  0  0  0
    3.5145   -6.5938    2.3362 C   0  0  0  0  0  0  0  0  0  0  0  0
    3.7718   -6.8417    3.6911 C   0  0  0  0  0  0  0  0  0  0  0  0
    3.6274   -8.1285    4.2107 C   0  0  0  0  0  0  0  0  0  0  0  0
    3.2153   -9.1708    3.3824 C   0  0  0  0  0  0  0  0  0  0  0  0
    2.9421   -8.9276    2.0364 C   0  0  0  0  0  0  0  0  0  0  0  0
    3.0895   -7.6413    1.5104 C   0  0  0  0  0  0  0  0  0  0  0  0
    4.1940    1.1089   -1.3470 C   0  0  0  0  0  0  0  0  0  0  0  0
    4.0311    0.5921    1.0928 C   0  0  0  0  0  0  0  0  0  0  0  0
   -0.0409   -0.1927   -0.6444 H   0  0  0  0  0  0  0  0  0  0  0  0
    5.4459   -1.1571   -0.5843 H   0  0  0  0  0  0  0  0  0  0  0  0
    4.1101   -1.6029   -1.6291 H   0  0  0  0  0  0  0  0  0  0  0  0
    2.8862   -2.5599    0.3497 H   0  0  0  0  0  0  0  0  0  0  0  0
    4.2834   -2.1634    1.3789 H   0  0  0  0  0  0  0  0  0  0  0  0
    4.5219   -5.8288   -0.0462 H   0  0  0  0  0  0  0  0  0  0  0  0
    2.9462   -5.0140   -0.1654 H   0  0  0  0  0  0  0  0  0  0  0  0
    4.0937   -6.0339    4.3463 H   0  0  0  0  0  0  0  0  0  0  0  0
    3.8373   -8.3160    5.2610 H   0  0  0  0  0  0  0  0  0  0  0  0
    3.1034  -10.1736    3.7879 H   0  0  0  0  0  0  0  0  0  0  0  0
    2.6121   -9.7429    1.3965 H   0  0  0  0  0  0  0  0  0  0  0  0
    2.8562   -7.4826    0.4616 H   0  0  0  0  0  0  0  0  0  0  0  0
    3.7428    2.0955   -1.1862 H   0  0  0  0  0  0  0  0  0  0  0  0
    3.9466    0.8025   -2.3705 H   0  0  0  0  0  0  0  0  0  0  0  0
    5.2819    1.2259   -1.2859 H   0  0  0  0  0  0  0  0  0  0  0  0
    3.6324    1.6002    1.2597 H   0  0  0  0  0  0  0  0  0  0  0  0
    5.1159    0.6346    1.2416 H   0  0  0  0  0  0  0  0  0  0  0  0
    3.6062   -0.0460    1.8755 H   0  0  0  0  0  0  0  0  0  0  0  0
  1  2  3  0  0  0  0
  1 19  1  0  0  0  0
  2  3  1  0  0  0  0
  3 18  1  0  0  0  0
  3 17  1  0  0  0  0
  3  4  1  0  0  0  0
  4  5  1  0  0  0  0
  4 20  1  0  0  0  0
  4 21  1  0  0  0  0
  5  6  1  0  0  0  0
  5 22  1  0  0  0  0
  5 23  1  0  0  0  0
  6  8  1  0  0  0  0
  6  7  2  0  0  0  0
  8  9  1  0  0  0  0
  8 24  1  0  0  0  0
  8 25  1  0  0  0  0
  9 11  1  0  0  0  0
  9 10  2  0  0  0  0
 11 12  2  0  0  0  0
 11 16  1  0  0  0  0
 12 13  1  0  0  0  0
 12 26  1  0  0  0  0
 13 14  2  0  0  0  0
 13 27  1  0  0  0  0
 14 15  1  0  0  0  0
 14 28  1  0  0  0  0
 15 16  2  0  0  0  0
 15 29  1  0  0  0  0
 16 30  1  0  0  0  0
 17 31  1  0  0  0  0
 17 32  1  0  0  0  0
 17 33  1  0  0  0  0
 18 34  1  0  0  0  0
 18 35  1  0  0  0  0
 18 36  1  0  0  0  0
M  END
$$$$