3786824 3786823
 OpenBabel01151412083D

 16 16  0  0  0  0  0  0  0  0999 V2000
    2.6279   -1.2848   -0.2312 O   0  0  0  0  0  0  0  0  0  0  0  0
    2.3429   -0.1293    0.0567 C   0  0  0  0  0  0  0  0  0  0  0  0
    2.9170    1.0256   -0.6619 C   0  0  0  0  0  0  0  0  0  0  0  0
    2.5482    2.3195   -0.2812 C   0  0  0  0  0  0  0  0  0  0  0  0
    3.0867    3.4159   -0.9558 C   0  0  0  0  0  0  0  0  0  0  0  0
    3.9880    3.2170   -2.0039 C   0  0  0  0  0  0  0  0  0  0  0  0
    4.3548    1.9218   -2.3822 C   0  0  0  0  0  0  0  0  0  0  0  0
    3.8190    0.8218   -1.7106 C   0  0  0  0  0  0  0  0  0  0  0  0
    5.2788    1.7247   -3.4570 C   0  0  0  0  0  0  0  0  0  0  0  0
    6.0538    1.5574   -4.3584 C   0  0  0  0  0  0  0  0  0  0  0  0
    1.6380    0.0999    0.8735 H   0  0  0  0  0  0  0  0  0  0  0  0
    1.8476    2.4861    0.5330 H   0  0  0  0  0  0  0  0  0  0  0  0
    2.8064    4.4263   -0.6675 H   0  0  0  0  0  0  0  0  0  0  0  0
    4.4035    4.0775   -2.5249 H   0  0  0  0  0  0  0  0  0  0  0  0
    4.0996   -0.1894   -1.9992 H   0  0  0  0  0  0  0  0  0  0  0  0
    6.7413    1.4050   -5.1579 H   0  0  0  0  0  0  0  0  0  0  0  0
  1  2  2  0  0  0  0
  2  3  1  0  0  0  0
  2 11  1  0  0  0  0
  3  4  2  0  0  0  0
  3  8  1  0  0  0  0
  4  5  1  0  0  0  0
  4 12  1  0  0  0  0
  5  6  2  0  0  0  0
  5 13  1  0  0  0  0
  6  7  1  0  0  0  0
  6 14  1  0  0  0  0
  7  8  2  0  0  0  0
  7  9  1  0  0  0  0
  8 15  1  0  0  0  0
  9 10  3  0  0  0  0
 10 16  1  0  0  0  0
M  END
$$$$