5785721 5785720
 OpenBabel01151412123D

 33 33  0  0  0  0  0  0  0  0999 V2000
    2.5775    1.2608    0.6456 C   0  0  0  0  0  0  0  0  0  0  0  0
    2.7882    2.1858   -0.5464 C   0  0  0  0  0  0  0  0  0  0  0  0
    4.1946    2.7972   -0.6626 C   0  0  0  0  0  0  0  0  0  0  0  0
    5.3168    1.8763   -1.0954 C   0  0  0  0  0  0  0  0  0  0  0  0
    5.1671    0.5735   -0.7642 N   0  0  0  0  0  0  0  0  0  0  0  0
    6.1797   -0.2745   -0.9990 C   0  0  0  0  0  0  0  0  0  0  0  0
    5.9050   -1.9695   -0.5589 S   0  0  0  0  0  0  0  0  0  0  0  0
    7.6039   -2.4725   -0.1662 C   0  0  0  0  0  0  0  0  0  0  0  0
    8.1313   -1.8298    1.0469 C   0  0  0  0  0  0  0  0  0  0  0  0
    8.5670   -1.3002    2.0309 C   0  0  0  0  0  0  0  0  0  0  0  0
    7.3475    0.0740   -1.5419 N   0  0  0  0  0  0  0  0  0  0  0  0
    7.4603    1.3701   -1.8420 C   0  0  0  0  0  0  0  0  0  0  0  0
    6.4894    2.3434   -1.6805 C   0  0  0  0  0  0  0  0  0  0  0  0
    6.7643    3.7777   -2.0482 C   0  0  0  0  0  0  0  0  0  0  0  0
    7.2257    4.0227   -3.4647 C   0  0  0  0  0  0  0  0  0  0  0  0
    6.7083    3.4812   -4.5760 C   0  0  0  0  0  0  0  0  0  0  0  0
    8.7003    1.6839   -2.3032 O   0  0  0  0  0  0  0  0  0  0  0  0
    1.5064    1.0835    0.7916 H   0  0  0  0  0  0  0  0  0  0  0  0
    2.9766    1.6951    1.5670 H   0  0  0  0  0  0  0  0  0  0  0  0
    3.0408    0.2831    0.4919 H   0  0  0  0  0  0  0  0  0  0  0  0
    2.0791    3.0170   -0.4391 H   0  0  0  0  0  0  0  0  0  0  0  0
    2.5218    1.6626   -1.4719 H   0  0  0  0  0  0  0  0  0  0  0  0
    4.4782    3.2531    0.2943 H   0  0  0  0  0  0  0  0  0  0  0  0
    4.0969    3.6064   -1.3930 H   0  0  0  0  0  0  0  0  0  0  0  0
    8.2608   -2.2928   -1.0237 H   0  0  0  0  0  0  0  0  0  0  0  0
    7.5877   -3.5572   -0.0147 H   0  0  0  0  0  0  0  0  0  0  0  0
    8.9458   -0.8250    2.9063 H   0  0  0  0  0  0  0  0  0  0  0  0
    7.5377    4.1471   -1.3620 H   0  0  0  0  0  0  0  0  0  0  0  0
    5.9025    4.4286   -1.8774 H   0  0  0  0  0  0  0  0  0  0  0  0
    8.0823    4.6872   -3.5677 H   0  0  0  0  0  0  0  0  0  0  0  0
    5.8630    2.8014   -4.5477 H   0  0  0  0  0  0  0  0  0  0  0  0
    7.1399    3.7024   -5.5482 H   0  0  0  0  0  0  0  0  0  0  0  0
    9.1206    0.8062   -2.3014 H   0  0  0  0  0  0  0  0  0  0  0  0
  1  2  1  0  0  0  0
  1 18  1  0  0  0  0
  1 19  1  0  0  0  0
  1 20  1  0  0  0  0
  2  3  1  0  0  0  0
  2 21  1  0  0  0  0
  2 22  1  0  0  0  0
  3  4  1  0  0  0  0
  3 23  1  0  0  0  0
  3 24  1  0  0  0  0
  4 13  1  0  0  0  0
  4  5  2  0  0  0  0
  5  6  1  0  0  0  0
  6 11  2  0  0  0  0
  6  7  1  0  0  0  0
  7  8  1  0  0  0  0
  8  9  1  0  0  0  0
  8 25  1  0  0  0  0
  8 26  1  0  0  0  0
  9 10  3  0  0  0  0
 10 27  1  0  0  0  0
 11 12  1  0  0  0  0
 12 13  2  0  0  0  0
 12 17  1  0  0  0  0
 13 14  1  0  0  0  0
 14 15  1  0  0  0  0
 14 28  1  0  0  0  0
 14 29  1  0  0  0  0
 15 16  2  0  0  0  0
 15 30  1  0  0  0  0
 16 31  1  0  0  0  0
 16 32  1  0  0  0  0
 17 33  1  0  0  0  0
M  END
$$$$