31621461 31621460
 OpenBabel01151412083D

 31 31  0  0  1  0  0  0  0  0999 V2000
    4.3588   -2.5618    2.8359 C   0  0  0  0  0  0  0  0  0  0  0  0
    3.9379   -2.4943    1.7124 C   0  0  0  0  0  0  0  0  0  0  0  0
    3.3938   -2.3950    0.3440 C   0  0  0  0  0  0  0  0  0  0  0  0
    4.2606   -1.5827   -0.5249 N   0  0  0  0  0  0  0  0  0  0  0  0
    3.9343   -1.7218   -1.9771 C   0  0  3  0  0  0  0  0  0  0  0  0
    4.3689   -3.0737   -2.5533 C   0  0  0  0  0  0  0  0  0  0  0  0
    3.4682   -4.0146   -3.0791 C   0  0  0  0  0  0  0  0  0  0  0  0
    3.9325   -5.2061   -3.6409 C   0  0  0  0  0  0  0  0  0  0  0  0
    5.2963   -5.4696   -3.6802 C   0  0  0  0  0  0  0  0  0  0  0  0
    6.2214   -4.5635   -3.1643 C   0  0  0  0  0  0  0  0  0  0  0  0
    5.7473   -3.3764   -2.5885 C   0  0  0  0  0  0  0  0  0  0  0  0
    7.6846   -4.8819   -3.1891 C   0  0  0  0  0  0  0  0  0  0  0  0
    5.7183   -6.6182   -4.2284 F   0  0  0  0  0  0  0  0  0  0  0  0
    2.4818   -1.3236   -2.3088 C   0  0  0  0  0  0  0  0  0  0  0  0
    1.4516   -1.8132   -1.8689 O   0  0  0  0  0  0  0  0  0  0  0  0
    2.4031   -0.3115   -3.2028 O   0  0  0  0  0  0  0  0  0  0  0  0
    4.2538   -0.1721   -0.1263 C   0  0  0  0  0  0  0  0  0  0  0  0
    4.7289   -2.6138    3.8335 H   0  0  0  0  0  0  0  0  0  0  0  0
    2.3805   -1.9817    0.4029 H   0  0  0  0  0  0  0  0  0  0  0  0
    3.3068   -3.4160   -0.0446 H   0  0  0  0  0  0  0  0  0  0  0  0
    4.5637   -0.9968   -2.5165 H   0  0  0  0  0  0  0  0  0  0  0  0
    2.3941   -3.8459   -3.0647 H   0  0  0  0  0  0  0  0  0  0  0  0
    3.2367   -5.9315   -4.0512 H   0  0  0  0  0  0  0  0  0  0  0  0
    6.4569   -2.6669   -2.1626 H   0  0  0  0  0  0  0  0  0  0  0  0
    8.2893   -3.9808   -3.0424 H   0  0  0  0  0  0  0  0  0  0  0  0
    7.9696   -5.3094   -4.1562 H   0  0  0  0  0  0  0  0  0  0  0  0
    7.9272   -5.5962   -2.3964 H   0  0  0  0  0  0  0  0  0  0  0  0
    1.4396   -0.1820   -3.3304 H   0  0  0  0  0  0  0  0  0  0  0  0
    4.6292   -0.0438    0.8945 H   0  0  0  0  0  0  0  0  0  0  0  0
    3.2551    0.2746   -0.1816 H   0  0  0  0  0  0  0  0  0  0  0  0
    4.9272    0.4113   -0.7648 H   0  0  0  0  0  0  0  0  0  0  0  0
  1  2  3  0  0  0  0
  1 18  1  0  0  0  0
  2  3  1  0  0  0  0
  3  4  1  0  0  0  0
  3 19  1  0  0  0  0
  3 20  1  0  0  0  0
  4 17  1  0  0  0  0
  4  5  1  0  0  0  0
  5 14  1  0  0  0  0
  5  6  1  0  0  0  0
  5 21  1  0  0  0  0
  6  7  2  0  0  0  0
  6 11  1  0  0  0  0
  7  8  1  0  0  0  0
  7 22  1  0  0  0  0
  8  9  2  0  0  0  0
  8 23  1  0  0  0  0
  9 10  1  0  0  0  0
  9 13  1  0  0  0  0
 10 11  2  0  0  0  0
 10 12  1  0  0  0  0
 11 24  1  0  0  0  0
 12 25  1  0  0  0  0
 12 26  1  0  0  0  0
 12 27  1  0  0  0  0
 14 16  1  0  0  0  0
 14 15  2  0  0  0  0
 16 28  1  0  0  0  0
 17 29  1  0  0  0  0
 17 30  1  0  0  0  0
 17 31  1  0  0  0  0
M  END
$$$$