26485473 26485472
 OpenBabel01151412113D

 40 42  0  0  0  0  0  0  0  0999 V2000
    2.5666   -0.9242    3.2801 C   0  0  0  0  0  0  0  0  0  0  0  0
    3.3616   -0.8492    2.3853 C   0  0  0  0  0  0  0  0  0  0  0  0
    4.3018   -0.7683    1.3084 C   0  0  0  0  0  0  0  0  0  0  0  0
    4.4093    0.4054    0.5611 C   0  0  0  0  0  0  0  0  0  0  0  0
    5.3212    0.4771   -0.4907 C   0  0  0  0  0  0  0  0  0  0  0  0
    6.1127   -0.6308   -0.8013 C   0  0  0  0  0  0  0  0  0  0  0  0
    6.0048   -1.8185   -0.0715 C   0  0  0  0  0  0  0  0  0  0  0  0
    5.1077   -1.8697    1.0027 C   0  0  0  0  0  0  0  0  0  0  0  0
    6.8493   -2.8852   -0.4211 N   0  0  0  0  0  0  0  0  0  0  0  0
    6.3427   -4.0743   -0.4889 C   0  0  0  0  0  0  0  0  0  0  0  0
    7.1587   -5.1998   -0.8439 C   0  0  0  0  0  0  0  0  0  0  0  0
    8.4590   -5.2994   -1.2917 C   0  0  0  0  0  0  0  0  0  0  0  0
    8.7191   -6.6799   -1.4713 C   0  0  0  0  0  0  0  0  0  0  0  0
    7.5685   -7.3538   -1.1086 C   0  0  0  0  0  0  0  0  0  0  0  0
    6.6131   -6.4469   -0.7391 O   0  0  0  0  0  0  0  0  0  0  0  0
    7.1842   -8.7628   -1.0386 C   0  0  0  0  0  0  0  0  0  0  0  0
    8.0616   -9.7654   -1.4783 C   0  0  0  0  0  0  0  0  0  0  0  0
    7.7139  -11.1262   -1.4102 C   0  0  0  0  0  0  0  0  0  0  0  0
    6.4605  -11.4832   -0.8887 C   0  0  0  0  0  0  0  0  0  0  0  0
    5.5631  -10.5037   -0.4408 C   0  0  0  0  0  0  0  0  0  0  0  0
    5.9381   -9.1512   -0.5224 C   0  0  0  0  0  0  0  0  0  0  0  0
    4.2125  -10.8724    0.1259 C   0  0  0  0  0  0  0  0  0  0  0  0
    4.0566  -10.4541    1.4117 F   0  0  0  0  0  0  0  0  0  0  0  0
    3.1856  -10.3205   -0.5767 F   0  0  0  0  0  0  0  0  0  0  0  0
    3.9785  -12.2140    0.1383 F   0  0  0  0  0  0  0  0  0  0  0  0
    8.6651  -12.1986   -1.8877 C   0  0  0  0  0  0  0  0  0  0  0  0
    8.9931  -13.0764   -0.9004 F   0  0  0  0  0  0  0  0  0  0  0  0
    8.1378  -12.9463   -2.8954 F   0  0  0  0  0  0  0  0  0  0  0  0
    9.8443  -11.7096   -2.3613 F   0  0  0  0  0  0  0  0  0  0  0  0
    1.8568   -0.9936    4.0729 H   0  0  0  0  0  0  0  0  0  0  0  0
    3.7916    1.2685    0.7977 H   0  0  0  0  0  0  0  0  0  0  0  0
    5.4187    1.3931   -1.0674 H   0  0  0  0  0  0  0  0  0  0  0  0
    6.8274   -0.5700   -1.6187 H   0  0  0  0  0  0  0  0  0  0  0  0
    5.0378   -2.7668    1.6113 H   0  0  0  0  0  0  0  0  0  0  0  0
    5.2777   -4.2828   -0.2810 H   0  0  0  0  0  0  0  0  0  0  0  0
    9.1288   -4.4682   -1.4671 H   0  0  0  0  0  0  0  0  0  0  0  0
    9.6435   -7.1228   -1.8139 H   0  0  0  0  0  0  0  0  0  0  0  0
    9.0358   -9.4932   -1.8837 H   0  0  0  0  0  0  0  0  0  0  0  0
    6.1847  -12.5379   -0.8320 H   0  0  0  0  0  0  0  0  0  0  0  0
    5.2384   -8.3925   -0.1695 H   0  0  0  0  0  0  0  0  0  0  0  0
  1  2  3  0  0  0  0
  1 30  1  0  0  0  0
  2  3  1  0  0  0  0
  3  4  2  0  0  0  0
  3  8  1  0  0  0  0
  4  5  1  0  0  0  0
  4 31  1  0  0  0  0
  5  6  2  0  0  0  0
  5 32  1  0  0  0  0
  6  7  1  0  0  0  0
  6 33  1  0  0  0  0
  7  8  2  0  0  0  0
  7  9  1  0  0  0  0
  8 34  1  0  0  0  0
  9 10  2  0  0  0  0
 10 11  1  0  0  0  0
 10 35  1  0  0  0  0
 11 12  2  0  0  0  0
 11 15  1  0  0  0  0
 12 13  1  0  0  0  0
 12 36  1  0  0  0  0
 13 14  2  0  0  0  0
 13 37  1  0  0  0  0
 14 15  1  0  0  0  0
 14 16  1  0  0  0  0
 16 21  1  0  0  0  0
 16 17  2  0  0  0  0
 17 18  1  0  0  0  0
 17 38  1  0  0  0  0
 18 19  2  0  0  0  0
 18 26  1  0  0  0  0
 19 20  1  0  0  0  0
 19 39  1  0  0  0  0
 20 21  2  0  0  0  0
 20 22  1  0  0  0  0
 21 40  1  0  0  0  0
 22 25  1  0  0  0  0
 22 24  1  0  0  0  0
 22 23  1  0  0  0  0
 26 29  1  0  0  0  0
 26 28  1  0  0  0  0
 26 27  1  0  0  0  0
M  END
$$$$