42931765 42931764
 OpenBabel01151412063D

 29 31  0  0  0  0  0  0  0  0999 V2000
    6.9504    1.1042   -2.4419 C   0  0  0  0  0  0  0  0  0  0  0  0
    5.9881    1.0411   -1.7267 C   0  0  0  0  0  0  0  0  0  0  0  0
    4.8222    0.9521   -0.8403 C   0  0  0  0  0  0  0  0  0  0  0  0
    5.0958    1.6055    0.4043 O   0  0  0  0  0  0  0  0  0  0  0  0
    5.6798    0.8193    1.3544 C   0  0  0  0  0  0  0  0  0  0  0  0
    5.9324   -0.3702    1.2057 O   0  0  0  0  0  0  0  0  0  0  0  0
    5.9303    1.6084    2.5469 C   0  0  0  0  0  0  0  0  0  0  0  0
    5.6178    2.9283    2.8152 C   0  0  0  0  0  0  0  0  0  0  0  0
    6.0195    3.3402    4.1271 C   0  0  0  0  0  0  0  0  0  0  0  0
    6.6384    2.3111    4.8177 C   0  0  0  0  0  0  0  0  0  0  0  0
    6.7233    0.8869    3.8794 S   0  0  0  0  0  0  0  0  0  0  0  0
    7.1949    2.4168    6.1780 C   0  0  0  0  0  0  0  0  0  0  0  0
    7.4943    1.2888    6.9581 C   0  0  0  0  0  0  0  0  0  0  0  0
    8.0235    1.4393    8.2364 C   0  0  0  0  0  0  0  0  0  0  0  0
    8.3035    0.3502    8.9640 F   0  0  0  0  0  0  0  0  0  0  0  0
    8.2670    2.6960    8.7712 C   0  0  0  0  0  0  0  0  0  0  0  0
    7.9754    3.8289    8.0143 C   0  0  0  0  0  0  0  0  0  0  0  0
    7.4332    3.7004    6.7254 C   0  0  0  0  0  0  0  0  0  0  0  0
    7.1298    5.2235    5.8166 S   0  0  0  0  0  0  0  0  0  0  0  0
    5.7777    4.6911    4.7175 C   0  0  0  0  0  0  0  0  0  0  0  0
    7.8112    1.1523   -3.0691 H   0  0  0  0  0  0  0  0  0  0  0  0
    4.4966   -0.0838   -0.6925 H   0  0  0  0  0  0  0  0  0  0  0  0
    3.9764    1.4806   -1.2935 H   0  0  0  0  0  0  0  0  0  0  0  0
    5.1120    3.5728    2.1045 H   0  0  0  0  0  0  0  0  0  0  0  0
    7.3237    0.2793    6.5972 H   0  0  0  0  0  0  0  0  0  0  0  0
    8.6838    2.7859    9.7693 H   0  0  0  0  0  0  0  0  0  0  0  0
    8.1736    4.8124    8.4352 H   0  0  0  0  0  0  0  0  0  0  0  0
    5.6697    5.4428    3.9288 H   0  0  0  0  0  0  0  0  0  0  0  0
    4.8451    4.6763    5.2923 H   0  0  0  0  0  0  0  0  0  0  0  0
  1  2  3  0  0  0  0
  1 21  1  0  0  0  0
  2  3  1  0  0  0  0
  3  4  1  0  0  0  0
  3 22  1  0  0  0  0
  3 23  1  0  0  0  0
  4  5  1  0  0  0  0
  5  7  1  0  0  0  0
  5  6  2  0  0  0  0
  7  8  2  0  0  0  0
  7 11  1  0  0  0  0
  8  9  1  0  0  0  0
  8 24  1  0  0  0  0
  9 20  1  0  0  0  0
  9 10  2  0  0  0  0
 10 12  1  0  0  0  0
 10 11  1  0  0  0  0
 12 13  2  0  0  0  0
 12 18  1  0  0  0  0
 13 14  1  0  0  0  0
 13 25  1  0  0  0  0
 14 16  2  0  0  0  0
 14 15  1  0  0  0  0
 16 17  1  0  0  0  0
 16 26  1  0  0  0  0
 17 18  2  0  0  0  0
 17 27  1  0  0  0  0
 18 19  1  0  0  0  0
 19 20  1  0  0  0  0
 20 28  1  0  0  0  0
 20 29  1  0  0  0  0
M  END
$$$$