10155268 10155267
 OpenBabel01151412093D

 12 11  0  0  0  0  0  0  0  0999 V2000
    0.9919   -0.0986    0.6978 C   0  0  0  0  0  0  0  0  0  0  0  0
    2.2727   -0.1504    0.0765 O   0  0  0  0  0  0  0  0  0  0  0  0
    3.0924   -1.0838    0.6508 C   0  0  0  0  0  0  0  0  0  0  0  0
    4.4282   -1.0436    0.5775 C   0  0  0  0  0  0  0  0  0  0  0  0
    5.1312   -0.0208   -0.0830 C   0  0  0  0  0  0  0  0  0  0  0  0
    5.7263    0.8451   -0.6422 C   0  0  0  0  0  0  0  0  0  0  0  0
    0.4170    0.7033    0.2256 H   0  0  0  0  0  0  0  0  0  0  0  0
    1.0855    0.1273    1.7656 H   0  0  0  0  0  0  0  0  0  0  0  0
    0.4516   -1.0399    0.5524 H   0  0  0  0  0  0  0  0  0  0  0  0
    2.5780   -1.8908    1.1580 H   0  0  0  0  0  0  0  0  0  0  0  0
    5.0081   -1.8315    1.0476 H   0  0  0  0  0  0  0  0  0  0  0  0
    6.2495    1.6231   -1.1457 H   0  0  0  0  0  0  0  0  0  0  0  0
  1  2  1  0  0  0  0
  1  7  1  0  0  0  0
  1  8  1  0  0  0  0
  1  9  1  0  0  0  0
  2  3  1  0  0  0  0
  3  4  2  0  0  0  0
  3 10  1  0  0  0  0
  4  5  1  0  0  0  0
  4 11  1  0  0  0  0
  5  6  3  0  0  0  0
  6 12  1  0  0  0  0
M  END
$$$$