45948947 26798515
 OpenBabel01151412103D

 26 26  0  0  0  0  0  0  0  0999 V2000
    7.4134   -1.0035   -3.5602 C   0  0  0  0  0  0  0  0  0  0  0  0
    7.0105   -0.3814   -2.6155 C   0  0  0  0  0  0  0  0  0  0  0  0
    6.5171    0.3745   -1.4547 C   0  0  0  0  0  0  0  0  0  0  0  0
    7.8865    1.1458   -0.5498 S   0  0  0  0  0  0  0  0  0  0  0  0
    6.9320    1.9459    0.6760 C   0  0  0  0  0  0  0  0  0  0  0  0
    6.3701    1.3793    1.7021 N   0  0  0  0  0  0  0  0  0  0  0  0
    6.5424   -0.0002    1.8045 N   0  0  0  0  0  0  0  0  0  0  0  0
    6.4913   -0.3716    3.0442 C   0  0  0  0  0  0  0  0  0  0  0  0
    6.6411   -1.7795    3.4557 C   0  0  0  0  0  0  0  0  0  0  0  0
    6.6806   -2.0743    4.8241 C   0  0  0  0  0  0  0  0  0  0  0  0
    6.8220   -3.3986    5.2422 C   0  0  0  0  0  0  0  0  0  0  0  0
    6.9179   -4.4118    4.2933 C   0  0  0  0  0  0  0  0  0  0  0  0
    6.8785   -4.1273    2.9317 C   0  0  0  0  0  0  0  0  0  0  0  0
    6.7419   -2.8040    2.5072 C   0  0  0  0  0  0  0  0  0  0  0  0
    7.0505   -5.6813    4.6986 F   0  0  0  0  0  0  0  0  0  0  0  0
    6.8634    3.2943    0.4988 N   0  0  0  0  0  0  0  0  0  0  0  0
    7.7797   -1.5571   -4.3940 H   0  0  0  0  0  0  0  0  0  0  0  0
    5.9566   -0.2931   -0.7942 H   0  0  0  0  0  0  0  0  0  0  0  0
    5.8330    1.1599   -1.7934 H   0  0  0  0  0  0  0  0  0  0  0  0
    6.3396    0.3690    3.8509 H   0  0  0  0  0  0  0  0  0  0  0  0
    6.6077   -1.2845    5.5674 H   0  0  0  0  0  0  0  0  0  0  0  0
    6.8586   -3.6473    6.2982 H   0  0  0  0  0  0  0  0  0  0  0  0
    6.9550   -4.9355    2.2111 H   0  0  0  0  0  0  0  0  0  0  0  0
    6.7127   -2.5785    1.4436 H   0  0  0  0  0  0  0  0  0  0  0  0
    7.6638    3.6777    0.0116 H   0  0  0  0  0  0  0  0  0  0  0  0
    6.6266    3.7828    1.3538 H   0  0  0  0  0  0  0  0  0  0  0  0
  1  2  3  0  0  0  0
  1 17  1  0  0  0  0
  2  3  1  0  0  0  0
  3  4  1  0  0  0  0
  3 18  1  0  0  0  0
  3 19  1  0  0  0  0
  4  5  1  0  0  0  0
  5 16  1  0  0  0  0
  5  6  2  0  0  0  0
  6  7  1  0  0  0  0
  7  8  2  0  0  0  0
  8  9  1  0  0  0  0
  8 20  1  0  0  0  0
  9 10  2  0  0  0  0
  9 14  1  0  0  0  0
 10 11  1  0  0  0  0
 10 21  1  0  0  0  0
 11 12  2  0  0  0  0
 11 22  1  0  0  0  0
 12 13  1  0  0  0  0
 12 15  1  0  0  0  0
 13 14  2  0  0  0  0
 13 23  1  0  0  0  0
 14 24  1  0  0  0  0
 16 25  1  0  0  0  0
 16 26  1  0  0  0  0
M  END
$$$$