11990997 11990996
 OpenBabel01151412073D

 38 40  0  0  1  0  0  0  0  0999 V2000
    0.8623    0.3299   -0.0463 C   0  0  0  0  0  0  0  0  0  0  0  0
    2.0291    0.3741   -0.3201 C   0  0  0  0  0  0  0  0  0  0  0  0
    3.4572    0.4759   -0.6546 C   0  0  0  0  0  0  0  0  0  0  0  0
    3.9561    1.7517   -0.1442 N   0  0  0  0  0  0  0  0  0  0  0  0
    5.4106    1.9403   -0.3744 C   0  0  3  0  0  0  0  0  0  0  0  0
    5.7920    1.8042   -1.8716 C   0  0  0  0  0  0  0  0  0  0  0  0
    6.5168    0.8587   -2.2057 O   0  0  0  0  0  0  0  0  0  0  0  0
    5.2928    2.7515   -2.8800 C   0  0  0  0  0  0  0  0  0  0  0  0
    4.4040    3.7917   -2.6737 C   0  0  0  0  0  0  0  0  0  0  0  0
    4.2025    4.4433   -3.8599 N   0  0  0  0  0  0  0  0  0  0  0  0
    3.6004    5.2447   -3.9896 H   0  0  0  0  0  0  0  0  0  0  0  0
    4.9280    3.8438   -4.8591 C   0  0  0  0  0  0  0  0  0  0  0  0
    5.6145    2.7737   -4.2820 C   0  0  0  0  0  0  0  0  0  0  0  0
    6.4295    1.9815   -5.1200 C   0  0  0  0  0  0  0  0  0  0  0  0
    6.5323    2.2861   -6.4826 C   0  0  0  0  0  0  0  0  0  0  0  0
    5.8401    3.3668   -7.0209 C   0  0  0  0  0  0  0  0  0  0  0  0
    5.0229    4.1671   -6.2185 C   0  0  0  0  0  0  0  0  0  0  0  0
    5.9575    3.2268    0.2507 C   0  0  0  0  0  0  0  0  0  0  0  0
    5.1333    4.1823    0.8720 C   0  0  0  0  0  0  0  0  0  0  0  0
    5.6728    5.3367    1.4433 C   0  0  0  0  0  0  0  0  0  0  0  0
    7.0456    5.5587    1.4029 C   0  0  0  0  0  0  0  0  0  0  0  0
    7.8805    4.6256    0.7939 C   0  0  0  0  0  0  0  0  0  0  0  0
    7.3434    3.4673    0.2269 C   0  0  0  0  0  0  0  0  0  0  0  0
   -0.1726    0.3176    0.1954 H   0  0  0  0  0  0  0  0  0  0  0  0
    3.5690    0.4134   -1.7428 H   0  0  0  0  0  0  0  0  0  0  0  0
    4.0034   -0.3619   -0.2059 H   0  0  0  0  0  0  0  0  0  0  0  0
    3.8054    1.7526    0.8647 H   0  0  0  0  0  0  0  0  0  0  0  0
    5.9210    1.1213    0.1551 H   0  0  0  0  0  0  0  0  0  0  0  0
    3.8872    4.1278   -1.7847 H   0  0  0  0  0  0  0  0  0  0  0  0
    6.9762    1.1342   -4.7138 H   0  0  0  0  0  0  0  0  0  0  0  0
    7.1600    1.6710   -7.1227 H   0  0  0  0  0  0  0  0  0  0  0  0
    5.9344    3.5911   -8.0809 H   0  0  0  0  0  0  0  0  0  0  0  0
    4.4825    5.0078   -6.6413 H   0  0  0  0  0  0  0  0  0  0  0  0
    4.0543    4.0490    0.9110 H   0  0  0  0  0  0  0  0  0  0  0  0
    5.0174    6.0627    1.9174 H   0  0  0  0  0  0  0  0  0  0  0  0
    7.4642    6.4589    1.8448 H   0  0  0  0  0  0  0  0  0  0  0  0
    8.9527    4.7992    0.7593 H   0  0  0  0  0  0  0  0  0  0  0  0
    8.0202    2.7525   -0.2395 H   0  0  0  0  0  0  0  0  0  0  0  0
  1  2  3  0  0  0  0
  1 24  1  0  0  0  0
  2  3  1  0  0  0  0
  3  4  1  0  0  0  0
  3 25  1  0  0  0  0
  3 26  1  0  0  0  0
  4  5  1  0  0  0  0
  4 27  1  0  0  0  0
  5 18  1  0  0  0  0
  5  6  1  0  0  0  0
  5 28  1  0  0  0  0
  6  8  1  0  0  0  0
  6  7  2  0  0  0  0
  8 13  1  0  0  0  0
  8  9  2  0  0  0  0
  9 10  1  0  0  0  0
  9 29  1  0  0  0  0
 10 12  1  0  0  0  0
 10 11  1  0  0  0  0
 12 13  2  0  0  0  0
 12 17  1  0  0  0  0
 13 14  1  0  0  0  0
 14 15  2  0  0  0  0
 14 30  1  0  0  0  0
 15 16  1  0  0  0  0
 15 31  1  0  0  0  0
 16 17  2  0  0  0  0
 16 32  1  0  0  0  0
 17 33  1  0  0  0  0
 18 19  2  0  0  0  0
 18 23  1  0  0  0  0
 19 20  1  0  0  0  0
 19 34  1  0  0  0  0
 20 21  2  0  0  0  0
 20 35  1  0  0  0  0
 21 22  1  0  0  0  0
 21 36  1  0  0  0  0
 22 23  2  0  0  0  0
 22 37  1  0  0  0  0
 23 38  1  0  0  0  0
M  END
$$$$