26939716 26939715
 OpenBabel01151412123D

 56 58  0  0  1  0  0  0  0  0999 V2000
    6.0729    4.3513   -4.8551 C   0  0  0  0  0  0  0  0  0  0  0  0
    5.8446    3.1746   -4.8447 C   0  0  0  0  0  0  0  0  0  0  0  0
    5.5720    1.7307   -4.8445 C   0  0  0  0  0  0  0  0  0  0  0  0
    6.0327    1.1398   -3.5911 N   0  0  0  0  0  0  0  0  0  0  0  0
    5.7843   -0.3058   -3.5792 C   0  0  0  0  0  0  0  0  0  0  0  0
    6.2998   -1.0062   -2.2875 C   0  0  2  0  0  0  0  0  0  0  0  0
    5.8356   -0.4965   -1.4351 H   0  0  0  0  0  0  0  0  0  0  0  0
    7.7878   -0.7931   -2.1256 C   0  0  0  0  0  0  0  0  0  0  0  0
    8.7244   -1.7385   -2.3067 C   0  0  0  0  0  0  0  0  0  0  0  0
   10.1782   -1.4669   -2.0342 C   0  0  0  0  0  0  0  0  0  0  0  0
    8.3395   -3.1417   -2.7295 C   0  0  1  0  0  0  0  0  0  0  0  0
    9.1014   -3.8386   -2.3523 H   0  0  0  0  0  0  0  0  0  0  0  0
    7.0224   -3.5049   -2.0190 C   0  0  0  0  0  0  0  0  0  0  0  0
    5.8609   -2.5116   -2.2778 C   0  0  1  0  0  0  0  0  0  0  0  0
    5.4907   -2.7524   -3.2854 H   0  0  0  0  0  0  0  0  0  0  0  0
    4.6630   -2.8085   -1.3133 C   0  0  0  0  0  0  0  0  0  0  0  0
    4.9847   -2.6174    0.1756 C   0  0  0  0  0  0  0  0  0  0  0  0
    3.4132   -1.9949   -1.6677 C   0  0  0  0  0  0  0  0  0  0  0  0
    8.2326   -3.3334   -4.2583 C   0  0  0  0  0  0  0  0  0  0  0  0
    9.5009   -3.0286   -4.9608 C   0  0  0  0  0  0  0  0  0  0  0  0
   10.5970   -3.7469   -5.0767 N   0  0  0  0  0  0  0  0  0  0  0  0
   11.5139   -2.9449   -5.7293 N   0  0  0  0  0  0  0  0  0  0  0  0
   10.9052   -1.8013   -5.9821 C   0  0  0  0  0  0  0  0  0  0  0  0
    9.6114   -1.7915   -5.5336 O   0  0  0  0  0  0  0  0  0  0  0  0
   11.4308   -0.5705   -6.5484 C   0  0  0  0  0  0  0  0  0  0  0  0
   12.8203   -0.3641   -6.5859 C   0  0  0  0  0  0  0  0  0  0  0  0
   13.3566    0.8225   -7.0966 C   0  0  0  0  0  0  0  0  0  0  0  0
   12.5115    1.8174   -7.5842 C   0  0  0  0  0  0  0  0  0  0  0  0
   11.1320    1.6232   -7.5633 C   0  0  0  0  0  0  0  0  0  0  0  0
   10.6024    0.4388   -7.0496 C   0  0  0  0  0  0  0  0  0  0  0  0
    9.2688    0.2919   -7.0673 F   0  0  0  0  0  0  0  0  0  0  0  0
    6.2792    5.3978   -4.8560 H   0  0  0  0  0  0  0  0  0  0  0  0
    6.0928    1.2735   -5.6939 H   0  0  0  0  0  0  0  0  0  0  0  0
    4.4960    1.5608   -4.9726 H   0  0  0  0  0  0  0  0  0  0  0  0
    5.5491    1.5829   -2.8124 H   0  0  0  0  0  0  0  0  0  0  0  0
    6.2705   -0.7600   -4.4510 H   0  0  0  0  0  0  0  0  0  0  0  0
    4.7072   -0.4809   -3.6810 H   0  0  0  0  0  0  0  0  0  0  0  0
    8.0880    0.2122   -1.8322 H   0  0  0  0  0  0  0  0  0  0  0  0
   10.3394   -0.4551   -1.6473 H   0  0  0  0  0  0  0  0  0  0  0  0
   10.7815   -1.5724   -2.9378 H   0  0  0  0  0  0  0  0  0  0  0  0
   10.5565   -2.1678   -1.2826 H   0  0  0  0  0  0  0  0  0  0  0  0
    6.7067   -4.5137   -2.3153 H   0  0  0  0  0  0  0  0  0  0  0  0
    7.2391   -3.5618   -0.9463 H   0  0  0  0  0  0  0  0  0  0  0  0
    4.3954   -3.8656   -1.4480 H   0  0  0  0  0  0  0  0  0  0  0  0
    5.3552   -1.6121    0.3943 H   0  0  0  0  0  0  0  0  0  0  0  0
    5.7308   -3.3372    0.5231 H   0  0  0  0  0  0  0  0  0  0  0  0
    4.0893   -2.7779    0.7867 H   0  0  0  0  0  0  0  0  0  0  0  0
    3.5530   -0.9258   -1.4792 H   0  0  0  0  0  0  0  0  0  0  0  0
    2.5588   -2.3230   -1.0651 H   0  0  0  0  0  0  0  0  0  0  0  0
    3.1437   -2.1297   -2.7198 H   0  0  0  0  0  0  0  0  0  0  0  0
    7.4327   -2.7169   -4.6804 H   0  0  0  0  0  0  0  0  0  0  0  0
    7.9612   -4.3747   -4.4722 H   0  0  0  0  0  0  0  0  0  0  0  0
   13.4962   -1.1279   -6.2024 H   0  0  0  0  0  0  0  0  0  0  0  0
   14.4344    0.9691   -7.1090 H   0  0  0  0  0  0  0  0  0  0  0  0
   12.9266    2.7411   -7.9800 H   0  0  0  0  0  0  0  0  0  0  0  0
   10.4600    2.3869   -7.9433 H   0  0  0  0  0  0  0  0  0  0  0  0
  1  2  3  0  0  0  0
  1 32  1  0  0  0  0
  2  3  1  0  0  0  0
  3  4  1  0  0  0  0
  3 33  1  0  0  0  0
  3 34  1  0  0  0  0
  4  5  1  0  0  0  0
  4 35  1  0  0  0  0
  5 36  1  0  0  0  0
  5 37  1  0  0  0  0
  6 14  1  0  0  0  0
  6  8  1  0  0  0  0
  6  7  1  1  0  0  0
  6  5  1  0  0  0  0
  8  9  2  0  0  0  0
  8 38  1  0  0  0  0
  9 11  1  0  0  0  0
  9 10  1  0  0  0  0
 10 39  1  0  0  0  0
 10 40  1  0  0  0  0
 10 41  1  0  0  0  0
 11 13  1  0  0  0  0
 11 19  1  0  0  0  0
 11 12  1  1  0  0  0
 13 14  1  0  0  0  0
 13 42  1  0  0  0  0
 13 43  1  0  0  0  0
 14 16  1  0  0  0  0
 14 15  1  6  0  0  0
 16 18  1  0  0  0  0
 16 17  1  0  0  0  0
 16 44  1  0  0  0  0
 17 45  1  0  0  0  0
 17 46  1  0  0  0  0
 17 47  1  0  0  0  0
 18 48  1  0  0  0  0
 18 49  1  0  0  0  0
 18 50  1  0  0  0  0
 19 20  1  0  0  0  0
 19 51  1  0  0  0  0
 19 52  1  0  0  0  0
 20 24  1  0  0  0  0
 20 21  2  0  0  0  0
 21 22  1  0  0  0  0
 22 23  2  0  0  0  0
 23 24  1  0  0  0  0
 23 25  1  0  0  0  0
 25 26  2  0  0  0  0
 25 30  1  0  0  0  0
 26 27  1  0  0  0  0
 26 53  1  0  0  0  0
 27 28  2  0  0  0  0
 27 54  1  0  0  0  0
 28 29  1  0  0  0  0
 28 55  1  0  0  0  0
 29 30  2  0  0  0  0
 29 56  1  0  0  0  0
 30 31  1  0  0  0  0
M  END
$$$$