46112493 46112492
 OpenBabel01151412163D

 27 27  0  0  0  0  0  0  0  0999 V2000
    2.9791   -1.7179   -3.9245 C   0  0  0  0  0  0  0  0  0  0  0  0
    2.4647   -0.4514   -3.2550 C   0  0  0  0  0  0  0  0  0  0  0  0
    3.0876   -0.1980   -1.8830 C   0  0  0  0  0  0  0  0  0  0  0  0
    4.5122    0.0706   -1.9325 N   0  0  0  0  0  0  0  0  0  0  0  0
    5.1048    1.2710   -2.1907 C   0  0  0  0  0  0  0  0  0  0  0  0
    6.4585    1.0470   -2.1176 C   0  0  0  0  0  0  0  0  0  0  0  0
    6.5969   -0.3276   -1.7957 C   0  0  0  0  0  0  0  0  0  0  0  0
    5.3889   -0.9201   -1.6802 N   0  0  0  0  0  0  0  0  0  0  0  0
    7.8497   -1.0744   -1.6054 C   0  0  0  0  0  0  0  0  0  0  0  0
    8.9594   -0.5768   -1.7672 O   0  0  0  0  0  0  0  0  0  0  0  0
    7.6458   -2.3845   -1.2425 N   0  0  0  0  0  0  0  0  0  0  0  0
    8.7231   -3.3262   -1.1576 C   0  0  0  0  0  0  0  0  0  0  0  0
    8.2777   -4.5311   -0.4510 C   0  0  0  0  0  0  0  0  0  0  0  0
    7.9094   -5.5134    0.1337 C   0  0  0  0  0  0  0  0  0  0  0  0
    2.4235   -1.9068   -4.8486 H   0  0  0  0  0  0  0  0  0  0  0  0
    2.8564   -2.5873   -3.2711 H   0  0  0  0  0  0  0  0  0  0  0  0
    4.0377   -1.6282   -4.1868 H   0  0  0  0  0  0  0  0  0  0  0  0
    1.3787   -0.5391   -3.1320 H   0  0  0  0  0  0  0  0  0  0  0  0
    2.6438    0.4036   -3.9176 H   0  0  0  0  0  0  0  0  0  0  0  0
    2.9283   -1.0520   -1.2144 H   0  0  0  0  0  0  0  0  0  0  0  0
    2.6164    0.6747   -1.4158 H   0  0  0  0  0  0  0  0  0  0  0  0
    4.5305    2.1619   -2.4029 H   0  0  0  0  0  0  0  0  0  0  0  0
    7.2535    1.7646   -2.2679 H   0  0  0  0  0  0  0  0  0  0  0  0
    6.6786   -2.6959   -1.2548 H   0  0  0  0  0  0  0  0  0  0  0  0
    9.5713   -2.8611   -0.6453 H   0  0  0  0  0  0  0  0  0  0  0  0
    9.0385   -3.5677   -2.1777 H   0  0  0  0  0  0  0  0  0  0  0  0
    7.5814   -6.3811    0.6580 H   0  0  0  0  0  0  0  0  0  0  0  0
  1  2  1  0  0  0  0
  1 15  1  0  0  0  0
  1 16  1  0  0  0  0
  1 17  1  0  0  0  0
  2  3  1  0  0  0  0
  2 18  1  0  0  0  0
  2 19  1  0  0  0  0
  3  4  1  0  0  0  0
  3 20  1  0  0  0  0
  3 21  1  0  0  0  0
  4  5  1  0  0  0  0
  4  8  1  0  0  0  0
  5  6  2  0  0  0  0
  5 22  1  0  0  0  0
  6  7  1  0  0  0  0
  6 23  1  0  0  0  0
  7  8  2  0  0  0  0
  7  9  1  0  0  0  0
  9 11  1  0  0  0  0
  9 10  2  0  0  0  0
 11 12  1  0  0  0  0
 11 24  1  0  0  0  0
 12 13  1  0  0  0  0
 12 25  1  0  0  0  0
 12 26  1  0  0  0  0
 13 14  3  0  0  0  0
 14 27  1  0  0  0  0
M  END
$$$$