36777136 36777135
 OpenBabel01151412123D

 35 36  0  0  0  0  0  0  0  0999 V2000
    2.6217    1.1877   -1.1576 C   0  0  0  0  0  0  0  0  0  0  0  0
    3.3871    0.2628   -1.2078 C   0  0  0  0  0  0  0  0  0  0  0  0
    4.3097   -0.8753   -1.3360 C   0  0  0  0  0  0  0  0  0  0  0  0
    3.9027   -2.0123   -0.5189 N   0  0  0  0  0  0  0  0  0  0  0  0
    2.7900   -2.7729   -0.7879 C   0  0  0  0  0  0  0  0  0  0  0  0
    2.1645   -2.6711   -1.8463 O   0  0  0  0  0  0  0  0  0  0  0  0
    2.3252   -3.7922    0.1934 C   0  0  0  0  0  0  0  0  0  0  0  0
    1.7795   -4.9824   -0.3101 C   0  0  0  0  0  0  0  0  0  0  0  0
    1.2972   -5.9627    0.5584 C   0  0  0  0  0  0  0  0  0  0  0  0
    1.3482   -5.7563    1.9357 C   0  0  0  0  0  0  0  0  0  0  0  0
    1.8712   -4.5672    2.4446 C   0  0  0  0  0  0  0  0  0  0  0  0
    2.3508   -3.5816    1.5769 C   0  0  0  0  0  0  0  0  0  0  0  0
    4.7171   -2.2259    0.6132 O   0  0  0  0  0  0  0  0  0  0  0  0
    5.7380   -3.1764    0.2745 C   0  0  0  0  0  0  0  0  0  0  0  0
    6.7192   -3.2986    1.4097 C   0  0  0  0  0  0  0  0  0  0  0  0
    6.7400   -4.4453    2.2155 C   0  0  0  0  0  0  0  0  0  0  0  0
    7.6810   -4.5738    3.2388 C   0  0  0  0  0  0  0  0  0  0  0  0
    8.6036   -3.5555    3.4716 C   0  0  0  0  0  0  0  0  0  0  0  0
    8.5811   -2.4034    2.6878 C   0  0  0  0  0  0  0  0  0  0  0  0
    7.6414   -2.2730    1.6638 C   0  0  0  0  0  0  0  0  0  0  0  0
    1.9291    1.9978   -1.1386 H   0  0  0  0  0  0  0  0  0  0  0  0
    5.3231   -0.5732   -1.0517 H   0  0  0  0  0  0  0  0  0  0  0  0
    4.3351   -1.2083   -2.3791 H   0  0  0  0  0  0  0  0  0  0  0  0
    1.7211   -5.1433   -1.3851 H   0  0  0  0  0  0  0  0  0  0  0  0
    0.8727   -6.8804    0.1587 H   0  0  0  0  0  0  0  0  0  0  0  0
    0.9661   -6.5166    2.6127 H   0  0  0  0  0  0  0  0  0  0  0  0
    1.8941   -4.4011    3.5191 H   0  0  0  0  0  0  0  0  0  0  0  0
    2.7237   -2.6491    1.9926 H   0  0  0  0  0  0  0  0  0  0  0  0
    6.2749   -2.8544   -0.6268 H   0  0  0  0  0  0  0  0  0  0  0  0
    5.2790   -4.1485    0.0596 H   0  0  0  0  0  0  0  0  0  0  0  0
    6.0274   -5.2500    2.0471 H   0  0  0  0  0  0  0  0  0  0  0  0
    7.6958   -5.4704    3.8530 H   0  0  0  0  0  0  0  0  0  0  0  0
    9.3384   -3.6586    4.2657 H   0  0  0  0  0  0  0  0  0  0  0  0
    9.2972   -1.6069    2.8729 H   0  0  0  0  0  0  0  0  0  0  0  0
    7.6348   -1.3684    1.0598 H   0  0  0  0  0  0  0  0  0  0  0  0
  1  2  3  0  0  0  0
  1 21  1  0  0  0  0
  2  3  1  0  0  0  0
  3  4  1  0  0  0  0
  3 22  1  0  0  0  0
  3 23  1  0  0  0  0
  4 13  1  0  0  0  0
  4  5  1  0  0  0  0
  5  7  1  0  0  0  0
  5  6  2  0  0  0  0
  7  8  2  0  0  0  0
  7 12  1  0  0  0  0
  8  9  1  0  0  0  0
  8 24  1  0  0  0  0
  9 10  2  0  0  0  0
  9 25  1  0  0  0  0
 10 11  1  0  0  0  0
 10 26  1  0  0  0  0
 11 12  2  0  0  0  0
 11 27  1  0  0  0  0
 12 28  1  0  0  0  0
 13 14  1  0  0  0  0
 14 15  1  0  0  0  0
 14 29  1  0  0  0  0
 14 30  1  0  0  0  0
 15 16  2  0  0  0  0
 15 20  1  0  0  0  0
 16 17  1  0  0  0  0
 16 31  1  0  0  0  0
 17 18  2  0  0  0  0
 17 32  1  0  0  0  0
 18 19  1  0  0  0  0
 18 33  1  0  0  0  0
 19 20  2  0  0  0  0
 19 34  1  0  0  0  0
 20 35  1  0  0  0  0
M  END
$$$$