46019464 46019463
 OpenBabel01151412053D

 16 15  0  0  0  0  0  0  0  0999 V2000
    3.2949   -1.8235    0.2490 O   0  0  0  0  0  0  0  0  0  0  0  0
    4.1646   -1.2283   -0.3829 C   0  0  0  0  0  0  0  0  0  0  0  0
    4.0328    0.2062   -0.8337 C   0  0  0  0  0  0  0  0  0  0  0  0
    5.3047    0.8371   -0.7312 O   0  0  0  0  0  0  0  0  0  0  0  0
    5.2395    2.2071   -1.1376 C   0  0  0  0  0  0  0  0  0  0  0  0
    6.6295    2.8271   -1.0277 C   0  0  0  0  0  0  0  0  0  0  0  0
    6.6256    4.2319   -1.4571 C   0  0  0  0  0  0  0  0  0  0  0  0
    6.6235    5.3803   -1.8089 C   0  0  0  0  0  0  0  0  0  0  0  0
    5.0610   -1.7599   -0.7448 H   0  0  0  0  0  0  0  0  0  0  0  0
    3.3013    0.7157   -0.1985 H   0  0  0  0  0  0  0  0  0  0  0  0
    3.7016    0.2041   -1.8769 H   0  0  0  0  0  0  0  0  0  0  0  0
    4.5316    2.7443   -0.4945 H   0  0  0  0  0  0  0  0  0  0  0  0
    4.8803    2.2620   -2.1727 H   0  0  0  0  0  0  0  0  0  0  0  0
    7.3369    2.2484   -1.6335 H   0  0  0  0  0  0  0  0  0  0  0  0
    6.9857    2.7467    0.0061 H   0  0  0  0  0  0  0  0  0  0  0  0
    6.6243    6.3998   -2.1204 H   0  0  0  0  0  0  0  0  0  0  0  0
  1  2  2  0  0  0  0
  2  3  1  0  0  0  0
  2  9  1  0  0  0  0
  3  4  1  0  0  0  0
  3 10  1  0  0  0  0
  3 11  1  0  0  0  0
  4  5  1  0  0  0  0
  5  6  1  0  0  0  0
  5 12  1  0  0  0  0
  5 13  1  0  0  0  0
  6  7  1  0  0  0  0
  6 14  1  0  0  0  0
  6 15  1  0  0  0  0
  7  8  3  0  0  0  0
  8 16  1  0  0  0  0
M  END
$$$$