25932899 25932898
 OpenBabel01151412143D

 26 26  0  0  0  0  0  0  0  0999 V2000
    2.1808   -1.1254    0.5993 C   0  0  0  0  0  0  0  0  0  0  0  0
    3.2510   -1.1899    0.0617 C   0  0  0  0  0  0  0  0  0  0  0  0
    4.5657   -1.2638   -0.5995 C   0  0  0  0  0  0  0  0  0  0  0  0
    4.8046   -0.0305   -1.2763 O   0  0  0  0  0  0  0  0  0  0  0  0
    6.1156    0.3717   -1.3658 C   0  0  0  0  0  0  0  0  0  0  0  0
    6.3515    1.7482   -1.1933 C   0  0  0  0  0  0  0  0  0  0  0  0
    5.0654    2.8426   -0.8109 Cl  0  0  0  0  0  0  0  0  0  0  0  0
    7.6354    2.2792   -1.3155 C   0  0  0  0  0  0  0  0  0  0  0  0
    8.6922    1.4350   -1.6419 C   0  0  0  0  0  0  0  0  0  0  0  0
    8.4764    0.0647   -1.8264 C   0  0  0  0  0  0  0  0  0  0  0  0
    7.1932   -0.4794   -1.6817 C   0  0  0  0  0  0  0  0  0  0  0  0
    6.9170   -1.8051   -1.8938 O   0  0  0  0  0  0  0  0  0  0  0  0
    8.0087   -2.7164   -1.8239 C   0  0  0  0  0  0  0  0  0  0  0  0
   10.0338    2.0198   -1.8221 C   0  0  0  0  0  0  0  0  0  0  0  0
   11.0313    1.3246   -2.2685 N   0  0  0  0  0  0  0  0  0  0  0  0
   12.1557    2.1541   -2.3548 O   0  0  0  0  0  0  0  0  0  0  0  0
    1.2290   -1.0572    1.0761 H   0  0  0  0  0  0  0  0  0  0  0  0
    4.5466   -2.0782   -1.3319 H   0  0  0  0  0  0  0  0  0  0  0  0
    5.3285   -1.4666    0.1620 H   0  0  0  0  0  0  0  0  0  0  0  0
    7.7967    3.3444   -1.1773 H   0  0  0  0  0  0  0  0  0  0  0  0
    9.3220   -0.5562   -2.1075 H   0  0  0  0  0  0  0  0  0  0  0  0
    7.5955   -3.7290   -1.7870 H   0  0  0  0  0  0  0  0  0  0  0  0
    8.5998   -2.5672   -0.9137 H   0  0  0  0  0  0  0  0  0  0  0  0
    8.6339   -2.6434   -2.7190 H   0  0  0  0  0  0  0  0  0  0  0  0
   10.1558    3.0896   -1.5718 H   0  0  0  0  0  0  0  0  0  0  0  0
   12.8203    1.5670   -2.7613 H   0  0  0  0  0  0  0  0  0  0  0  0
  1  2  3  0  0  0  0
  1 17  1  0  0  0  0
  2  3  1  0  0  0  0
  3  4  1  0  0  0  0
  3 18  1  0  0  0  0
  3 19  1  0  0  0  0
  4  5  1  0  0  0  0
  5 11  1  0  0  0  0
  5  6  2  0  0  0  0
  6  8  1  0  0  0  0
  6  7  1  0  0  0  0
  8  9  2  0  0  0  0
  8 20  1  0  0  0  0
  9 10  1  0  0  0  0
  9 14  1  0  0  0  0
 10 11  2  0  0  0  0
 10 21  1  0  0  0  0
 11 12  1  0  0  0  0
 12 13  1  0  0  0  0
 13 22  1  0  0  0  0
 13 23  1  0  0  0  0
 13 24  1  0  0  0  0
 14 15  2  0  0  0  0
 14 25  1  0  0  0  0
 15 16  1  0  0  0  0
 16 26  1  0  0  0  0
M  END
$$$$