43395138 43395137
 OpenBabel01151412143D

 21 21  0  0  1  0  0  0  0  0999 V2000
    4.2445   -0.4687    0.9002 C   0  0  0  0  0  0  0  0  0  0  0  0
    3.5682   -0.8679   -0.0090 C   0  0  0  0  0  0  0  0  0  0  0  0
    2.7540   -1.3607   -1.1335 C   0  0  3  0  0  0  0  0  0  0  0  0
    3.4405   -2.4361   -1.7904 O   0  0  0  0  0  0  0  0  0  0  0  0
    4.3183   -2.0627   -2.7552 C   0  0  0  0  0  0  0  0  0  0  0  0
    4.5321   -0.9187   -3.1309 O   0  0  0  0  0  0  0  0  0  0  0  0
    4.9782   -3.2246   -3.2956 C   0  0  0  0  0  0  0  0  0  0  0  0
    5.9520   -3.1300   -4.2706 N   0  0  0  0  0  0  0  0  0  0  0  0
    6.2784   -2.2628   -4.6795 H   0  0  0  0  0  0  0  0  0  0  0  0
    6.4029   -4.3745   -4.5829 C   0  0  0  0  0  0  0  0  0  0  0  0
    5.7369   -5.3012   -3.8303 C   0  0  0  0  0  0  0  0  0  0  0  0
    4.8325   -4.5780   -3.0126 C   0  0  0  0  0  0  0  0  0  0  0  0
    5.9135   -6.9871   -3.8283 Cl  0  0  0  0  0  0  0  0  0  0  0  0
    7.6179   -4.4986   -5.7617 Cl  0  0  0  0  0  0  0  0  0  0  0  0
    1.4319   -1.9224   -0.6221 C   0  0  0  0  0  0  0  0  0  0  0  0
    4.8511   -0.1158    1.7024 H   0  0  0  0  0  0  0  0  0  0  0  0
    2.5301   -0.5502   -1.8378 H   0  0  0  0  0  0  0  0  0  0  0  0
    4.1446   -4.9962   -2.2877 H   0  0  0  0  0  0  0  0  0  0  0  0
    1.5961   -2.7426    0.0872 H   0  0  0  0  0  0  0  0  0  0  0  0
    0.8466   -2.3357   -1.4508 H   0  0  0  0  0  0  0  0  0  0  0  0
    0.8352   -1.1519   -0.1225 H   0  0  0  0  0  0  0  0  0  0  0  0
  1  2  3  0  0  0  0
  1 16  1  0  0  0  0
  2  3  1  0  0  0  0
  3 15  1  0  0  0  0
  3  4  1  0  0  0  0
  3 17  1  0  0  0  0
  4  5  1  0  0  0  0
  5  7  1  0  0  0  0
  5  6  2  0  0  0  0
  7  8  1  0  0  0  0
  7 12  2  0  0  0  0
  8 10  1  0  0  0  0
  8  9  1  0  0  0  0
 10 11  2  0  0  0  0
 10 14  1  0  0  0  0
 11 12  1  0  0  0  0
 11 13  1  0  0  0  0
 12 18  1  0  0  0  0
 15 19  1  0  0  0  0
 15 20  1  0  0  0  0
 15 21  1  0  0  0  0
M  END
$$$$