5834514 5834513
 OpenBabel01151412053D

 34 35  0  0  1  0  0  0  0  0999 V2000
    0.3045    0.5446    0.5034 C   0  0  0  0  0  0  0  0  0  0  0  0
    0.7234   -0.1661   -0.3662 C   0  0  0  0  0  0  0  0  0  0  0  0
    1.2339   -1.0605   -1.4401 C   0  0  0  0  0  0  0  0  0  0  0  0
    2.7005   -1.1001   -1.2913 N   0  0  0  0  0  0  0  0  0  0  0  0
    3.6014   -1.8716   -1.9633 C   0  0  0  0  0  0  0  0  0  0  0  0
    4.9633   -2.3728   -1.1422 S   0  0  0  0  0  0  0  0  0  0  0  0
    3.2822   -2.1673   -3.2532 N   0  0  0  0  0  0  0  0  0  0  0  0
    3.9354   -3.1669   -4.1041 C   0  0  3  0  0  0  0  0  0  0  0  0
    3.3952   -3.1014   -5.5708 C   0  0  0  0  0  0  0  0  0  0  0  0
    2.7956   -4.5079   -5.7862 C   0  0  3  0  0  0  0  0  0  0  0  0
    2.2063   -4.7948   -4.4057 C   0  0  0  0  0  0  0  0  0  0  0  0
    3.5507   -4.6169   -3.6863 C   0  0  3  0  0  0  0  0  0  0  0  0
    4.3810   -5.5756   -4.5109 C   0  0  0  0  0  0  0  0  0  0  0  0
    3.9284   -5.5069   -5.7720 C   0  0  0  0  0  0  0  0  0  0  0  0
    0.6373   -2.4615   -1.2247 C   0  0  0  0  0  0  0  0  0  0  0  0
    0.7653   -0.4899   -2.7880 C   0  0  0  0  0  0  0  0  0  0  0  0
   -0.0733    1.1741    1.2785 H   0  0  0  0  0  0  0  0  0  0  0  0
    3.0131   -0.9310   -0.3411 H   0  0  0  0  0  0  0  0  0  0  0  0
    2.9201   -1.3631   -3.7453 H   0  0  0  0  0  0  0  0  0  0  0  0
    5.0180   -2.9961   -4.0838 H   0  0  0  0  0  0  0  0  0  0  0  0
    4.2023   -2.8890   -6.2811 H   0  0  0  0  0  0  0  0  0  0  0  0
    2.6235   -2.3320   -5.6889 H   0  0  0  0  0  0  0  0  0  0  0  0
    2.1011   -4.6097   -6.6205 H   0  0  0  0  0  0  0  0  0  0  0  0
    1.4438   -4.0682   -4.1063 H   0  0  0  0  0  0  0  0  0  0  0  0
    1.7901   -5.8054   -4.3063 H   0  0  0  0  0  0  0  0  0  0  0  0
    3.5189   -4.8400   -2.6194 H   0  0  0  0  0  0  0  0  0  0  0  0
    5.2130   -6.1601   -4.1484 H   0  0  0  0  0  0  0  0  0  0  0  0
    4.3217   -6.0310   -6.6298 H   0  0  0  0  0  0  0  0  0  0  0  0
   -0.4580   -2.4417   -1.2693 H   0  0  0  0  0  0  0  0  0  0  0  0
    0.9205   -2.8682   -0.2460 H   0  0  0  0  0  0  0  0  0  0  0  0
    0.9858   -3.1714   -1.9805 H   0  0  0  0  0  0  0  0  0  0  0  0
   -0.3037   -0.2439   -2.7649 H   0  0  0  0  0  0  0  0  0  0  0  0
    0.8957   -1.1996   -3.6105 H   0  0  0  0  0  0  0  0  0  0  0  0
    1.3084    0.4282   -3.0411 H   0  0  0  0  0  0  0  0  0  0  0  0
  1  2  3  0  0  0  0
  1 17  1  0  0  0  0
  2  3  1  0  0  0  0
  3 16  1  0  0  0  0
  3 15  1  0  0  0  0
  3  4  1  0  0  0  0
  4  5  1  0  0  0  0
  4 18  1  0  0  0  0
  5  7  1  0  0  0  0
  5  6  2  0  0  0  0
  7  8  1  0  0  0  0
  7 19  1  0  0  0  0
  8  9  1  0  0  0  0
  8 12  1  0  0  0  0
  8 20  1  0  0  0  0
  9 10  1  0  0  0  0
  9 21  1  0  0  0  0
  9 22  1  0  0  0  0
 10 14  1  0  0  0  0
 10 11  1  0  0  0  0
 10 23  1  0  0  0  0
 11 12  1  0  0  0  0
 11 24  1  0  0  0  0
 11 25  1  0  0  0  0
 12 13  1  0  0  0  0
 12 26  1  0  0  0  0
 13 14  2  0  0  0  0
 13 27  1  0  0  0  0
 14 28  1  0  0  0  0
 15 29  1  0  0  0  0
 15 30  1  0  0  0  0
 15 31  1  0  0  0  0
 16 32  1  0  0  0  0
 16 33  1  0  0  0  0
 16 34  1  0  0  0  0
M  END
$$$$