207295829 207295830
 OpenBabel01151412123D

 20 20  0  0  0  0  0  0  0  0999 V2000
    1.9582   -0.2769   -0.4432 C   0  0  0  0  0  0  0  0  0  0  0  0
    3.1083   -0.1339   -0.1307 C   0  0  0  0  0  0  0  0  0  0  0  0
    4.5145    0.0431    0.2554 C   0  0  0  0  0  0  0  0  0  0  0  0
    4.5863    0.2816    1.6629 O   0  0  0  0  0  0  0  0  0  0  0  0
    5.9166    0.5396    2.0169 N   0  0  0  0  0  0  0  0  0  0  0  0
    6.0652    0.7609    3.2901 C   0  0  0  0  0  0  0  0  0  0  0  0
    5.0516    0.8533    4.3628 C   0  0  0  0  0  0  0  0  0  0  0  0
    3.7710    1.3558    4.1516 C   0  0  0  0  0  0  0  0  0  0  0  0
    2.9173    1.4279    5.2376 C   0  0  0  0  0  0  0  0  0  0  0  0
    3.2608    1.0547    6.4895 N   0  0  0  0  0  0  0  0  0  0  0  0
    4.5146    0.5887    6.6669 C   0  0  0  0  0  0  0  0  0  0  0  0
    5.4426    0.4757    5.6470 C   0  0  0  0  0  0  0  0  0  0  0  0
    0.9353   -0.4045   -0.7156 H   0  0  0  0  0  0  0  0  0  0  0  0
    4.9469    0.8960   -0.2801 H   0  0  0  0  0  0  0  0  0  0  0  0
    5.0921   -0.8561    0.0144 H   0  0  0  0  0  0  0  0  0  0  0  0
    7.1086    0.8877    3.6289 H   0  0  0  0  0  0  0  0  0  0  0  0
    3.4375    1.7013    3.1808 H   0  0  0  0  0  0  0  0  0  0  0  0
    1.9048    1.8066    5.1282 H   0  0  0  0  0  0  0  0  0  0  0  0
    4.7609    0.3006    7.6851 H   0  0  0  0  0  0  0  0  0  0  0  0
    6.4351    0.0925    5.8552 H   0  0  0  0  0  0  0  0  0  0  0  0
  1  2  3  0  0  0  0
  1 13  1  0  0  0  0
  2  3  1  0  0  0  0
  3  4  1  0  0  0  0
  3 14  1  0  0  0  0
  3 15  1  0  0  0  0
  4  5  1  0  0  0  0
  5  6  2  0  0  0  0
  6  7  1  0  0  0  0
  6 16  1  0  0  0  0
  7  8  2  0  0  0  0
  7 12  1  0  0  0  0
  8  9  1  0  0  0  0
  8 17  1  0  0  0  0
  9 10  2  0  0  0  0
  9 18  1  0  0  0  0
 10 11  1  0  0  0  0
 11 12  2  0  0  0  0
 11 19  1  0  0  0  0
 12 20  1  0  0  0  0
M  END
$$$$