25020225 25020224
 OpenBabel01151412063D

 29 29  0  0  0  0  0  0  0  0999 V2000
    2.6972   -1.6307    7.0338 C   0  0  0  0  0  0  0  0  0  0  0  0
    2.9246   -1.0898    5.9888 C   0  0  0  0  0  0  0  0  0  0  0  0
    3.2015   -0.4220    4.7132 C   0  0  0  0  0  0  0  0  0  0  0  0
    4.5221    0.1592    4.7489 N   0  0  0  0  0  0  0  0  0  0  0  0
    5.0065    0.7938    3.6368 C   0  0  0  0  0  0  0  0  0  0  0  0
    4.4284    0.8405    2.5612 O   0  0  0  0  0  0  0  0  0  0  0  0
    6.2172    1.3802    3.8998 N   0  0  0  0  0  0  0  0  0  0  0  0
    6.9756    2.0267    2.8421 C   0  0  0  0  0  0  0  0  0  0  0  0
    7.9503    3.0774    3.3824 C   0  0  0  0  0  0  0  0  0  0  0  0
    9.0189    2.4958    4.2803 C   0  0  0  0  0  0  0  0  0  0  0  0
   10.2085    1.9915    3.7372 C   0  0  0  0  0  0  0  0  0  0  0  0
   11.1815    1.4299    4.5675 C   0  0  0  0  0  0  0  0  0  0  0  0
   10.9655    1.3631    5.9423 C   0  0  0  0  0  0  0  0  0  0  0  0
    9.7879    1.8594    6.4961 C   0  0  0  0  0  0  0  0  0  0  0  0
    8.8191    2.4284    5.6676 C   0  0  0  0  0  0  0  0  0  0  0  0
   12.1592    0.6608    6.9631 Cl  0  0  0  0  0  0  0  0  0  0  0  0
    2.4936   -2.1149    7.9633 H   0  0  0  0  0  0  0  0  0  0  0  0
    2.4813    0.3811    4.5291 H   0  0  0  0  0  0  0  0  0  0  0  0
    3.1492   -1.1235    3.8759 H   0  0  0  0  0  0  0  0  0  0  0  0
    4.8141    0.5596    5.6266 H   0  0  0  0  0  0  0  0  0  0  0  0
    6.7639    0.8770    4.5850 H   0  0  0  0  0  0  0  0  0  0  0  0
    6.2778    2.5050    2.1455 H   0  0  0  0  0  0  0  0  0  0  0  0
    7.5047    1.2396    2.2926 H   0  0  0  0  0  0  0  0  0  0  0  0
    7.3984    3.8511    3.9314 H   0  0  0  0  0  0  0  0  0  0  0  0
    8.4324    3.5905    2.5409 H   0  0  0  0  0  0  0  0  0  0  0  0
   10.3876    2.0348    2.6647 H   0  0  0  0  0  0  0  0  0  0  0  0
   12.1024    1.0463    4.1363 H   0  0  0  0  0  0  0  0  0  0  0  0
    9.6191    1.8079    7.5684 H   0  0  0  0  0  0  0  0  0  0  0  0
    7.9035    2.8169    6.1097 H   0  0  0  0  0  0  0  0  0  0  0  0
  1  2  3  0  0  0  0
  1 17  1  0  0  0  0
  2  3  1  0  0  0  0
  3  4  1  0  0  0  0
  3 18  1  0  0  0  0
  3 19  1  0  0  0  0
  4  5  1  0  0  0  0
  4 20  1  0  0  0  0
  5  7  1  0  0  0  0
  5  6  2  0  0  0  0
  7  8  1  0  0  0  0
  7 21  1  0  0  0  0
  8  9  1  0  0  0  0
  8 22  1  0  0  0  0
  8 23  1  0  0  0  0
  9 10  1  0  0  0  0
  9 24  1  0  0  0  0
  9 25  1  0  0  0  0
 10 11  2  0  0  0  0
 10 15  1  0  0  0  0
 11 12  1  0  0  0  0
 11 26  1  0  0  0  0
 12 13  2  0  0  0  0
 12 27  1  0  0  0  0
 13 14  1  0  0  0  0
 13 16  1  0  0  0  0
 14 15  2  0  0  0  0
 14 28  1  0  0  0  0
 15 29  1  0  0  0  0
M  END
$$$$