1467394 1467393
 OpenBabel01151412093D

 16 15  0  0  0  0  0  0  0  0999 V2000
    1.1888   -1.0647    0.3767 C   0  0  0  0  0  0  0  0  0  0  0  0
    2.1216   -0.1030    0.3748 C   0  0  0  0  0  0  0  0  0  0  0  0
    2.7669    0.4564   -0.8547 C   0  0  0  0  0  0  0  0  0  0  0  0
    4.2081    0.2612   -0.7634 N   0  0  0  0  0  0  0  0  0  0  0  0
    4.8833    0.8070   -1.9356 C   0  0  0  0  0  0  0  0  0  0  0  0
    6.3272    0.5626   -1.8270 C   0  0  0  0  0  0  0  0  0  0  0  0
    7.5085    0.3628   -1.7353 C   0  0  0  0  0  0  0  0  0  0  0  0
    0.7640   -1.4203    1.3105 H   0  0  0  0  0  0  0  0  0  0  0  0
    0.8325   -1.5187   -0.5423 H   0  0  0  0  0  0  0  0  0  0  0  0
    2.4437    0.3214    1.3240 H   0  0  0  0  0  0  0  0  0  0  0  0
    2.5305    1.5256   -0.9095 H   0  0  0  0  0  0  0  0  0  0  0  0
    2.3668   -0.0236   -1.7560 H   0  0  0  0  0  0  0  0  0  0  0  0
    4.4022   -0.7380   -0.7130 H   0  0  0  0  0  0  0  0  0  0  0  0
    4.7039    1.8857   -2.0091 H   0  0  0  0  0  0  0  0  0  0  0  0
    4.5050    0.3390   -2.8522 H   0  0  0  0  0  0  0  0  0  0  0  0
    8.5551    0.1873   -1.6435 H   0  0  0  0  0  0  0  0  0  0  0  0
  1  2  2  0  0  0  0
  1  8  1  0  0  0  0
  1  9  1  0  0  0  0
  2  3  1  0  0  0  0
  2 10  1  0  0  0  0
  3  4  1  0  0  0  0
  3 11  1  0  0  0  0
  3 12  1  0  0  0  0
  4  5  1  0  0  0  0
  4 13  1  0  0  0  0
  5  6  1  0  0  0  0
  5 14  1  0  0  0  0
  5 15  1  0  0  0  0
  6  7  3  0  0  0  0
  7 16  1  0  0  0  0
M  END
$$$$