27509955 27509954
 OpenBabel01151412103D

 27 26  0  0  0  0  0  0  0  0999 V2000
    3.5077    1.2601   -0.7263 N   0  0  0  0  0  0  0  0  0  0  0  0
    3.1775    0.8594    0.3117 C   0  0  0  0  0  0  0  0  0  0  0  0
    2.7802    0.3563    1.5790 C   0  0  0  0  0  0  0  0  0  0  0  0
    3.1462   -0.8700    1.9964 C   0  0  0  0  0  0  0  0  0  0  0  0
    3.9119   -1.8344    1.3691 N   0  0  0  0  0  0  0  0  0  0  0  0
    4.2740   -3.1666    1.8714 C   0  0  0  0  0  0  0  0  0  0  0  0
    5.1042   -3.8382    0.8993 C   0  0  0  0  0  0  0  0  0  0  0  0
    5.7884   -4.3917    0.0982 C   0  0  0  0  0  0  0  0  0  0  0  0
    5.0533   -3.0377    3.2124 C   0  0  0  0  0  0  0  0  0  0  0  0
    6.3342   -2.2069    3.1394 C   0  0  0  0  0  0  0  0  0  0  0  0
    2.9886   -4.0061    2.1235 C   0  0  0  0  0  0  0  0  0  0  0  0
    2.0975   -4.2089    0.8985 C   0  0  0  0  0  0  0  0  0  0  0  0
    1.9780    1.1721    2.4250 C   0  0  0  0  0  0  0  0  0  0  0  0
    1.3237    1.8183    3.1330 N   0  0  0  0  0  0  0  0  0  0  0  0
    2.8110   -1.1985    2.9817 H   0  0  0  0  0  0  0  0  0  0  0  0
    4.2559   -1.6265    0.4311 H   0  0  0  0  0  0  0  0  0  0  0  0
    6.4014   -4.8855   -0.6206 H   0  0  0  0  0  0  0  0  0  0  0  0
    5.3202   -4.0378    3.5806 H   0  0  0  0  0  0  0  0  0  0  0  0
    4.4079   -2.5946    3.9815 H   0  0  0  0  0  0  0  0  0  0  0  0
    7.0704   -2.6600    2.4688 H   0  0  0  0  0  0  0  0  0  0  0  0
    6.7903   -2.1418    4.1328 H   0  0  0  0  0  0  0  0  0  0  0  0
    6.1368   -1.1866    2.7980 H   0  0  0  0  0  0  0  0  0  0  0  0
    2.3813   -3.5357    2.9074 H   0  0  0  0  0  0  0  0  0  0  0  0
    3.2654   -4.9975    2.5075 H   0  0  0  0  0  0  0  0  0  0  0  0
    1.7699   -3.2558    0.4732 H   0  0  0  0  0  0  0  0  0  0  0  0
    1.2017   -4.7716    1.1814 H   0  0  0  0  0  0  0  0  0  0  0  0
    2.6103   -4.7787    0.1178 H   0  0  0  0  0  0  0  0  0  0  0  0
  1  2  3  0  0  0  0
  2  3  1  0  0  0  0
  3 13  1  0  0  0  0
  3  4  2  0  0  0  0
  4  5  1  0  0  0  0
  4 15  1  0  0  0  0
  5  6  1  0  0  0  0
  5 16  1  0  0  0  0
  6 11  1  0  0  0  0
  6  9  1  0  0  0  0
  6  7  1  0  0  0  0
  7  8  3  0  0  0  0
  8 17  1  0  0  0  0
  9 10  1  0  0  0  0
  9 18  1  0  0  0  0
  9 19  1  0  0  0  0
 10 20  1  0  0  0  0
 10 21  1  0  0  0  0
 10 22  1  0  0  0  0
 11 12  1  0  0  0  0
 11 23  1  0  0  0  0
 11 24  1  0  0  0  0
 12 25  1  0  0  0  0
 12 26  1  0  0  0  0
 12 27  1  0  0  0  0
 13 14  3  0  0  0  0
M  END
$$$$