32498112 32498111
 OpenBabel01151412173D

 50 53  0  0  1  0  0  0  0  0999 V2000
    0.9904    0.7607    0.2337 C   0  0  0  0  0  0  0  0  0  0  0  0
    1.9962    0.6752    0.8858 C   0  0  0  0  0  0  0  0  0  0  0  0
    3.2344    0.5701    1.6756 C   0  0  0  0  0  0  0  0  0  0  0  0
    3.9864   -0.5400    1.1895 O   0  0  0  0  0  0  0  0  0  0  0  0
    5.3435   -0.4991    1.3766 C   0  0  0  0  0  0  0  0  0  0  0  0
    6.0538   -1.1439    0.3602 C   0  0  0  0  0  0  0  0  0  0  0  0
    7.4451   -1.2119    0.3895 C   0  0  0  0  0  0  0  0  0  0  0  0
    8.1613   -0.6614    1.4589 C   0  0  0  0  0  0  0  0  0  0  0  0
    7.4373   -0.0238    2.4873 C   0  0  0  0  0  0  0  0  0  0  0  0
    6.0347    0.0601    2.4629 C   0  0  0  0  0  0  0  0  0  0  0  0
    5.2908    0.6351    3.4585 O   0  0  0  0  0  0  0  0  0  0  0  0
    5.9771    1.2443    4.5440 C   0  0  0  0  0  0  0  0  0  0  0  0
    9.6885   -0.6991    1.5378 C   0  0  3  0  0  0  0  0  0  0  0  0
   10.3024    0.5555    0.8981 C   0  0  0  0  0  0  0  0  0  0  0  0
   10.4837    0.4573   -0.6094 C   0  0  0  0  0  0  0  0  0  0  0  0
   10.4514    1.4524   -1.3310 O   0  0  0  0  0  0  0  0  0  0  0  0
   10.8152   -0.7704   -1.1278 N   0  0  0  0  0  0  0  0  0  0  0  0
   10.7910   -1.9361   -0.3851 C   0  0  0  0  0  0  0  0  0  0  0  0
   10.2991   -1.9158    0.8995 C   0  0  0  0  0  0  0  0  0  0  0  0
   10.4110   -3.4287    1.6690 S   0  0  0  0  0  0  0  0  0  0  0  0
   11.0190   -4.1616    0.2419 C   0  0  0  0  0  0  0  0  0  0  0  0
   11.1425   -3.2532   -0.7919 C   0  0  0  0  0  0  0  0  0  0  0  0
   11.6135   -3.6953   -2.3982 S   0  0  0  0  0  0  0  0  0  0  0  0
   12.0614   -2.4628   -3.0157 O   0  0  0  0  0  0  0  0  0  0  0  0
   12.4718   -4.8486   -2.2243 O   0  0  0  0  0  0  0  0  0  0  0  0
   10.1141   -4.1951   -3.2045 C   0  0  0  0  0  0  0  0  0  0  0  0
    9.0814   -3.2646   -3.3779 C   0  0  0  0  0  0  0  0  0  0  0  0
    7.9109   -3.6471   -4.0362 C   0  0  0  0  0  0  0  0  0  0  0  0
    7.7840   -4.9468   -4.5265 C   0  0  0  0  0  0  0  0  0  0  0  0
    8.8173   -5.8706   -4.3622 C   0  0  0  0  0  0  0  0  0  0  0  0
    9.9894   -5.4968   -3.6990 C   0  0  0  0  0  0  0  0  0  0  0  0
    6.3471   -5.4095   -5.3504 Cl  0  0  0  0  0  0  0  0  0  0  0  0
    0.1028    0.8311   -0.3509 H   0  0  0  0  0  0  0  0  0  0  0  0
    2.9708    0.3972    2.7244 H   0  0  0  0  0  0  0  0  0  0  0  0
    3.7915    1.5096    1.5762 H   0  0  0  0  0  0  0  0  0  0  0  0
    5.5113   -1.5900   -0.4707 H   0  0  0  0  0  0  0  0  0  0  0  0
    7.9451   -1.7106   -0.4352 H   0  0  0  0  0  0  0  0  0  0  0  0
    7.9998    0.3990    3.3149 H   0  0  0  0  0  0  0  0  0  0  0  0
    5.2268    1.6902    5.2040 H   0  0  0  0  0  0  0  0  0  0  0  0
    6.6331    2.0499    4.1978 H   0  0  0  0  0  0  0  0  0  0  0  0
    6.5316    0.5002    5.1246 H   0  0  0  0  0  0  0  0  0  0  0  0
    9.9645   -0.6994    2.6020 H   0  0  0  0  0  0  0  0  0  0  0  0
    9.7081    1.4488    1.1231 H   0  0  0  0  0  0  0  0  0  0  0  0
   11.3075    0.7193    1.3096 H   0  0  0  0  0  0  0  0  0  0  0  0
   11.1254   -0.7947   -2.0985 H   0  0  0  0  0  0  0  0  0  0  0  0
   11.2395   -5.2219    0.2292 H   0  0  0  0  0  0  0  0  0  0  0  0
    9.1766   -2.2410   -3.0251 H   0  0  0  0  0  0  0  0  0  0  0  0
    7.1077   -2.9266   -4.1748 H   0  0  0  0  0  0  0  0  0  0  0  0
    8.7179   -6.8796   -4.7559 H   0  0  0  0  0  0  0  0  0  0  0  0
   10.7946   -6.2204   -3.5864 H   0  0  0  0  0  0  0  0  0  0  0  0
  1  2  3  0  0  0  0
  1 33  1  0  0  0  0
  2  3  1  0  0  0  0
  3  4  1  0  0  0  0
  3 34  1  0  0  0  0
  3 35  1  0  0  0  0
  4  5  1  0  0  0  0
  5  6  2  0  0  0  0
  5 10  1  0  0  0  0
  6  7  1  0  0  0  0
  6 36  1  0  0  0  0
  7  8  2  0  0  0  0
  7 37  1  0  0  0  0
  8  9  1  0  0  0  0
  8 13  1  0  0  0  0
  9 10  2  0  0  0  0
  9 38  1  0  0  0  0
 10 11  1  0  0  0  0
 11 12  1  0  0  0  0
 12 39  1  0  0  0  0
 12 40  1  0  0  0  0
 12 41  1  0  0  0  0
 13 14  1  0  0  0  0
 13 19  1  0  0  0  0
 13 42  1  0  0  0  0
 14 15  1  0  0  0  0
 14 43  1  0  0  0  0
 14 44  1  0  0  0  0
 15 17  1  0  0  0  0
 15 16  2  0  0  0  0
 17 18  1  0  0  0  0
 17 45  1  0  0  0  0
 18 22  1  0  0  0  0
 18 19  2  0  0  0  0
 19 20  1  0  0  0  0
 20 21  1  0  0  0  0
 21 22  2  0  0  0  0
 21 46  1  0  0  0  0
 22 23  1  0  0  0  0
 23 26  1  0  0  0  0
 23 25  2  0  0  0  0
 23 24  2  0  0  0  0
 26 27  2  0  0  0  0
 26 31  1  0  0  0  0
 27 28  1  0  0  0  0
 27 47  1  0  0  0  0
 28 29  2  0  0  0  0
 28 48  1  0  0  0  0
 29 30  1  0  0  0  0
 29 32  1  0  0  0  0
 30 31  2  0  0  0  0
 30 49  1  0  0  0  0
 31 50  1  0  0  0  0
M  END
$$$$