207268733 207268734
 OpenBabel01151412073D

 40 41  0  0  0  0  0  0  0  0999 V2000
   12.4935   -3.7409    1.2384 C   0  0  0  0  0  0  0  0  0  0  0  0
   12.4829   -2.7670    1.9339 C   0  0  0  0  0  0  0  0  0  0  0  0
   12.4527   -1.5913    2.8087 C   0  0  0  0  0  0  0  0  0  0  0  0
   13.3005   -0.5653    2.2894 O   0  0  0  0  0  0  0  0  0  0  0  0
   12.6630    0.5328    1.8123 C   0  0  0  0  0  0  0  0  0  0  0  0
   11.4535    0.6408    1.6803 O   0  0  0  0  0  0  0  0  0  0  0  0
   13.7168    1.9080    1.5292 S   0  0  0  0  0  0  0  0  0  0  0  0
   13.0598    2.9432    2.8859 C   0  0  0  0  0  0  0  0  0  0  0  0
   13.7910    4.2798    3.0404 C   0  0  0  0  0  0  0  0  0  0  0  0
   13.4531    5.3548    2.0662 N   0  0  0  0  0  0  0  0  0  0  0  0
   13.0306    5.0202    0.7745 C   0  0  0  0  0  0  0  0  0  0  0  0
   11.8711    4.7060    0.3078 N   0  0  0  0  0  0  0  0  0  0  0  0
   10.8775    4.7282    1.3080 O   0  0  0  0  0  0  0  0  0  0  0  0
    9.6392    4.6590    0.7175 C   0  0  0  0  0  0  0  0  0  0  0  0
    9.3835    4.8230   -0.4693 O   0  0  0  0  0  0  0  0  0  0  0  0
    8.7257    4.3380    1.6743 O   0  0  0  0  0  0  0  0  0  0  0  0
    7.4690    3.9070    1.1412 C   0  0  0  0  0  0  0  0  0  0  0  0
    7.5481    2.4807    0.7961 C   0  0  0  0  0  0  0  0  0  0  0  0
    7.6799    1.3225    0.5077 C   0  0  0  0  0  0  0  0  0  0  0  0
   14.3468    5.2099   -0.4237 S   0  0  0  0  0  0  0  0  0  0  0  0
   15.2545    6.1895    0.7343 C   0  0  0  0  0  0  0  0  0  0  0  0
   14.6077    6.2074    1.9798 C   0  0  0  0  0  0  0  0  0  0  0  0
   15.0963    7.0082    3.0062 C   0  0  0  0  0  0  0  0  0  0  0  0
   16.2589    7.7513    2.7804 C   0  0  0  0  0  0  0  0  0  0  0  0
   16.9344    7.6693    1.5527 C   0  0  0  0  0  0  0  0  0  0  0  0
   16.4308    6.8828    0.5162 C   0  0  0  0  0  0  0  0  0  0  0  0
   12.4979   -4.6129    0.6226 H   0  0  0  0  0  0  0  0  0  0  0  0
   12.8580   -1.8576    3.7905 H   0  0  0  0  0  0  0  0  0  0  0  0
   11.4246   -1.2554    2.9805 H   0  0  0  0  0  0  0  0  0  0  0  0
   13.2204    2.3672    3.8053 H   0  0  0  0  0  0  0  0  0  0  0  0
   11.9824    3.0814    2.7799 H   0  0  0  0  0  0  0  0  0  0  0  0
   14.8720    4.0684    3.0463 H   0  0  0  0  0  0  0  0  0  0  0  0
   13.5531    4.6665    4.0407 H   0  0  0  0  0  0  0  0  0  0  0  0
    7.1528    4.5188    0.2877 H   0  0  0  0  0  0  0  0  0  0  0  0
    6.7166    4.0562    1.9231 H   0  0  0  0  0  0  0  0  0  0  0  0
    7.8438    0.3022    0.2467 H   0  0  0  0  0  0  0  0  0  0  0  0
   14.5747    7.0842    3.9550 H   0  0  0  0  0  0  0  0  0  0  0  0
   16.6443    8.4033    3.5611 H   0  0  0  0  0  0  0  0  0  0  0  0
   17.8485    8.2382    1.3994 H   0  0  0  0  0  0  0  0  0  0  0  0
   16.9407    6.8254   -0.4400 H   0  0  0  0  0  0  0  0  0  0  0  0
  1  2  3  0  0  0  0
  1 27  1  0  0  0  0
  2  3  1  0  0  0  0
  3  4  1  0  0  0  0
  3 28  1  0  0  0  0
  3 29  1  0  0  0  0
  4  5  1  0  0  0  0
  5  7  1  0  0  0  0
  5  6  2  0  0  0  0
  7  8  1  0  0  0  0
  8  9  1  0  0  0  0
  8 30  1  0  0  0  0
  8 31  1  0  0  0  0
  9 10  1  0  0  0  0
  9 32  1  0  0  0  0
  9 33  1  0  0  0  0
 10 11  1  0  0  0  0
 10 22  1  0  0  0  0
 11 20  1  0  0  0  0
 11 12  2  0  0  0  0
 12 13  1  0  0  0  0
 13 14  1  0  0  0  0
 14 16  1  0  0  0  0
 14 15  2  0  0  0  0
 16 17  1  0  0  0  0
 17 18  1  0  0  0  0
 17 34  1  0  0  0  0
 17 35  1  0  0  0  0
 18 19  3  0  0  0  0
 19 36  1  0  0  0  0
 20 21  1  0  0  0  0
 21 26  1  0  0  0  0
 21 22  2  0  0  0  0
 22 23  1  0  0  0  0
 23 24  2  0  0  0  0
 23 37  1  0  0  0  0
 24 25  1  0  0  0  0
 24 38  1  0  0  0  0
 25 26  2  0  0  0  0
 25 39  1  0  0  0  0
 26 40  1  0  0  0  0
M  END
$$$$