45630951 45630950
 OpenBabel01151412093D

 33 33  0  0  1  0  0  0  0  0999 V2000
    5.7381    6.6637   -0.8742 C   0  0  0  0  0  0  0  0  0  0  0  0
    5.6215    6.0004    0.1147 C   0  0  0  0  0  0  0  0  0  0  0  0
    5.4799    5.1570    1.3199 C   0  0  0  0  0  0  0  0  0  0  0  0
    4.9245    3.7534    0.9996 C   0  0  0  0  0  0  0  0  0  0  0  0
    5.9941    2.7261    0.5355 C   0  0  3  0  0  0  0  0  0  0  0  0
    6.6883    3.3998   -0.5346 O   0  0  0  0  0  0  0  0  0  0  0  0
    7.8844    3.0206   -1.0130 C   0  0  0  0  0  0  0  0  0  0  0  0
    8.4812    1.9763   -0.8435 O   0  0  0  0  0  0  0  0  0  0  0  0
    8.4312    4.2407   -1.6292 C   0  0  0  0  0  0  0  0  0  0  0  0
    9.6794    4.6068   -1.3231 C   0  0  0  0  0  0  0  0  0  0  0  0
   10.1433    5.9020   -1.6664 C   0  0  0  0  0  0  0  0  0  0  0  0
    9.5423    7.1398   -1.4515 C   0  0  0  0  0  0  0  0  0  0  0  0
   10.4036    8.1356   -1.9617 C   0  0  0  0  0  0  0  0  0  0  0  0
   11.4933    7.4666   -2.4536 C   0  0  0  0  0  0  0  0  0  0  0  0
   11.3583    6.1307   -2.2635 O   0  0  0  0  0  0  0  0  0  0  0  0
    6.8892    2.3231    1.7263 C   0  0  0  0  0  0  0  0  0  0  0  0
    7.2518    0.8398    1.7309 C   0  0  0  0  0  0  0  0  0  0  0  0
    5.8570    7.2328   -1.7711 H   0  0  0  0  0  0  0  0  0  0  0  0
    4.7848    5.6589    2.0022 H   0  0  0  0  0  0  0  0  0  0  0  0
    6.4375    5.0871    1.8447 H   0  0  0  0  0  0  0  0  0  0  0  0
    4.1627    3.8460    0.2143 H   0  0  0  0  0  0  0  0  0  0  0  0
    4.4137    3.3606    1.8857 H   0  0  0  0  0  0  0  0  0  0  0  0
    5.4729    1.8573    0.1170 H   0  0  0  0  0  0  0  0  0  0  0  0
    7.7399    4.8708   -2.1720 H   0  0  0  0  0  0  0  0  0  0  0  0
   10.3476    3.9576   -0.7594 H   0  0  0  0  0  0  0  0  0  0  0  0
    8.5922    7.2973   -0.9585 H   0  0  0  0  0  0  0  0  0  0  0  0
   10.2507    9.2059   -1.9615 H   0  0  0  0  0  0  0  0  0  0  0  0
   12.4088    7.7766   -2.9375 H   0  0  0  0  0  0  0  0  0  0  0  0
    6.3565    2.5025    2.6682 H   0  0  0  0  0  0  0  0  0  0  0  0
    7.8046    2.9241    1.7566 H   0  0  0  0  0  0  0  0  0  0  0  0
    6.3584    0.2142    1.6375 H   0  0  0  0  0  0  0  0  0  0  0  0
    7.7458    0.5805    2.6731 H   0  0  0  0  0  0  0  0  0  0  0  0
    7.9360    0.5713    0.9253 H   0  0  0  0  0  0  0  0  0  0  0  0
  1  2  3  0  0  0  0
  1 18  1  0  0  0  0
  2  3  1  0  0  0  0
  3  4  1  0  0  0  0
  3 19  1  0  0  0  0
  3 20  1  0  0  0  0
  4  5  1  0  0  0  0
  4 21  1  0  0  0  0
  4 22  1  0  0  0  0
  5 16  1  0  0  0  0
  5  6  1  0  0  0  0
  5 23  1  0  0  0  0
  6  7  1  0  0  0  0
  7  9  1  0  0  0  0
  7  8  2  0  0  0  0
  9 10  2  0  0  0  0
  9 24  1  0  0  0  0
 10 11  1  0  0  0  0
 10 25  1  0  0  0  0
 11 12  2  0  0  0  0
 11 15  1  0  0  0  0
 12 13  1  0  0  0  0
 12 26  1  0  0  0  0
 13 14  2  0  0  0  0
 13 27  1  0  0  0  0
 14 15  1  0  0  0  0
 14 28  1  0  0  0  0
 16 17  1  0  0  0  0
 16 29  1  0  0  0  0
 16 30  1  0  0  0  0
 17 31  1  0  0  0  0
 17 32  1  0  0  0  0
 17 33  1  0  0  0  0
M  END
$$$$