2332947 2332946
 OpenBabel01151412053D

 39 39  0  0  0  0  0  0  0  0999 V2000
    1.3250    1.3627   -7.5137 C   0  0  0  0  0  0  0  0  0  0  0  0
    1.9195    1.3551   -6.4722 C   0  0  0  0  0  0  0  0  0  0  0  0
    2.6562    1.3478   -5.2004 C   0  0  0  0  0  0  0  0  0  0  0  0
    3.9761    0.8434   -5.4336 O   0  0  0  0  0  0  0  0  0  0  0  0
    4.9983    1.6921   -5.1633 C   0  0  0  0  0  0  0  0  0  0  0  0
    4.8885    2.8136   -4.6855 O   0  0  0  0  0  0  0  0  0  0  0  0
    6.3185    1.0568   -5.5262 C   0  0  0  0  0  0  0  0  0  0  0  0
    7.2309    0.8602   -4.3140 C   0  0  0  0  0  0  0  0  0  0  0  0
    7.6831    2.1567   -3.6380 C   0  0  0  0  0  0  0  0  0  0  0  0
    8.4297    3.0797   -4.5868 C   0  0  0  0  0  0  0  0  0  0  0  0
    9.0713    2.6390   -5.5339 O   0  0  0  0  0  0  0  0  0  0  0  0
    8.3423    4.4051   -4.2023 N   0  0  0  0  0  0  0  0  0  0  0  0
    8.9154    5.5114   -4.8598 C   0  0  0  0  0  0  0  0  0  0  0  0
    9.4385    5.4624   -6.1537 C   0  0  0  0  0  0  0  0  0  0  0  0
   10.0347    6.5913   -6.7225 C   0  0  0  0  0  0  0  0  0  0  0  0
   10.1302    7.7748   -5.9926 C   0  0  0  0  0  0  0  0  0  0  0  0
    9.5973    7.8407   -4.7011 C   0  0  0  0  0  0  0  0  0  0  0  0
    8.9675    6.7148   -4.1498 C   0  0  0  0  0  0  0  0  0  0  0  0
    9.7932    9.0832   -3.9108 C   0  0  0  0  0  0  0  0  0  0  0  0
   10.6140    9.9388   -4.1967 O   0  0  0  0  0  0  0  0  0  0  0  0
    8.9634    9.0831   -2.8403 O   0  0  0  0  0  0  0  0  0  0  0  0
    9.1420   10.1427   -1.8974 C   0  0  0  0  0  0  0  0  0  0  0  0
    0.8061    1.3709   -8.4450 H   0  0  0  0  0  0  0  0  0  0  0  0
    2.1711    0.6673   -4.4928 H   0  0  0  0  0  0  0  0  0  0  0  0
    2.6441    2.3460   -4.7500 H   0  0  0  0  0  0  0  0  0  0  0  0
    6.7835    1.6700   -6.3048 H   0  0  0  0  0  0  0  0  0  0  0  0
    6.1317    0.0777   -5.9842 H   0  0  0  0  0  0  0  0  0  0  0  0
    8.1157    0.2975   -4.6373 H   0  0  0  0  0  0  0  0  0  0  0  0
    6.7177    0.2401   -3.5690 H   0  0  0  0  0  0  0  0  0  0  0  0
    8.3689    1.9127   -2.8179 H   0  0  0  0  0  0  0  0  0  0  0  0
    6.8298    2.6750   -3.1898 H   0  0  0  0  0  0  0  0  0  0  0  0
    7.8833    4.5945   -3.3193 H   0  0  0  0  0  0  0  0  0  0  0  0
    9.3896    4.5562   -6.7513 H   0  0  0  0  0  0  0  0  0  0  0  0
   10.4420    6.5355   -7.7292 H   0  0  0  0  0  0  0  0  0  0  0  0
   10.6287    8.6378   -6.4287 H   0  0  0  0  0  0  0  0  0  0  0  0
    8.5677    6.7622   -3.1407 H   0  0  0  0  0  0  0  0  0  0  0  0
    8.1560   10.5264   -1.6225 H   0  0  0  0  0  0  0  0  0  0  0  0
    9.7468   10.9722   -2.2745 H   0  0  0  0  0  0  0  0  0  0  0  0
    9.6133    9.7237   -1.0038 H   0  0  0  0  0  0  0  0  0  0  0  0
  1  2  3  0  0  0  0
  1 23  1  0  0  0  0
  2  3  1  0  0  0  0
  3  4  1  0  0  0  0
  3 24  1  0  0  0  0
  3 25  1  0  0  0  0
  4  5  1  0  0  0  0
  5  7  1  0  0  0  0
  5  6  2  0  0  0  0
  7  8  1  0  0  0  0
  7 26  1  0  0  0  0
  7 27  1  0  0  0  0
  8  9  1  0  0  0  0
  8 28  1  0  0  0  0
  8 29  1  0  0  0  0
  9 10  1  0  0  0  0
  9 30  1  0  0  0  0
  9 31  1  0  0  0  0
 10 12  1  0  0  0  0
 10 11  2  0  0  0  0
 12 13  1  0  0  0  0
 12 32  1  0  0  0  0
 13 14  2  0  0  0  0
 13 18  1  0  0  0  0
 14 15  1  0  0  0  0
 14 33  1  0  0  0  0
 15 16  2  0  0  0  0
 15 34  1  0  0  0  0
 16 17  1  0  0  0  0
 16 35  1  0  0  0  0
 17 18  2  0  0  0  0
 17 19  1  0  0  0  0
 18 36  1  0  0  0  0
 19 21  1  0  0  0  0
 19 20  2  0  0  0  0
 21 22  1  0  0  0  0
 22 37  1  0  0  0  0
 22 38  1  0  0  0  0
 22 39  1  0  0  0  0
M  END
$$$$