13181692 13181691
 OpenBabel01151412143D

 39 40  0  0  1  0  0  0  0  0999 V2000
    0.8735    1.5475   -1.7213 C   0  0  0  0  0  0  0  0  0  0  0  0
    2.3018    1.5929   -1.6585 O   0  0  0  0  0  0  0  0  0  0  0  0
    2.9299    0.5432   -1.0536 C   0  0  0  0  0  0  0  0  0  0  0  0
    2.3402   -0.4113   -0.5615 O   0  0  0  0  0  0  0  0  0  0  0  0
    4.4524    0.7687   -0.9339 C   0  0  3  0  0  0  0  0  0  0  0  0
    4.5906    1.4605    0.4686 C   0  0  0  0  0  0  0  0  0  0  0  0
    5.9259    1.8809    1.0776 C   0  0  0  0  0  0  0  0  0  0  0  0
    7.0727    2.1301    0.3061 C   0  0  0  0  0  0  0  0  0  0  0  0
    8.2531    2.6168    0.8800 C   0  0  0  0  0  0  0  0  0  0  0  0
    8.3215    2.8609    2.2452 C   0  0  0  0  0  0  0  0  0  0  0  0
    7.2063    2.6164    3.0386 C   0  0  0  0  0  0  0  0  0  0  0  0
    6.0204    2.1411    2.4637 C   0  0  0  0  0  0  0  0  0  0  0  0
    4.6793    1.9149    3.5370 Cl  0  0  0  0  0  0  0  0  0  0  0  0
    5.1979   -0.5994   -0.9098 C   0  0  0  0  0  0  0  0  0  0  0  0
    5.1606   -1.4496   -2.1714 C   0  0  0  0  0  0  0  0  0  0  0  0
    4.0983   -2.3568   -2.3449 C   0  0  0  0  0  0  0  0  0  0  0  0
    4.0239   -3.1819   -3.4694 C   0  0  0  0  0  0  0  0  0  0  0  0
    5.0125   -3.1203   -4.4446 C   0  0  0  0  0  0  0  0  0  0  0  0
    6.0799   -2.2383   -4.2889 C   0  0  0  0  0  0  0  0  0  0  0  0
    6.1607   -1.4133   -3.1597 C   0  0  0  0  0  0  0  0  0  0  0  0
    7.5588   -0.4046   -3.0285 Cl  0  0  0  0  0  0  0  0  0  0  0  0
    4.9338    1.6331   -1.9856 C   0  0  0  0  0  0  0  0  0  0  0  0
    5.3305    2.3456   -2.8525 C   0  0  0  0  0  0  0  0  0  0  0  0
    0.4968    2.5473   -1.4863 H   0  0  0  0  0  0  0  0  0  0  0  0
    0.4264    0.8415   -1.0160 H   0  0  0  0  0  0  0  0  0  0  0  0
    0.5759    1.2939   -2.7419 H   0  0  0  0  0  0  0  0  0  0  0  0
    4.1183    0.7712    1.1826 H   0  0  0  0  0  0  0  0  0  0  0  0
    3.9694    2.3695    0.4684 H   0  0  0  0  0  0  0  0  0  0  0  0
    7.0906    1.9688   -0.7658 H   0  0  0  0  0  0  0  0  0  0  0  0
    9.1171    2.8140    0.2486 H   0  0  0  0  0  0  0  0  0  0  0  0
    9.2361    3.2460    2.6879 H   0  0  0  0  0  0  0  0  0  0  0  0
    7.2594    2.8112    4.1069 H   0  0  0  0  0  0  0  0  0  0  0  0
    4.7959   -1.2153   -0.0915 H   0  0  0  0  0  0  0  0  0  0  0  0
    6.2468   -0.4536   -0.6262 H   0  0  0  0  0  0  0  0  0  0  0  0
    3.3189   -2.4470   -1.5893 H   0  0  0  0  0  0  0  0  0  0  0  0
    3.1958   -3.8789   -3.5751 H   0  0  0  0  0  0  0  0  0  0  0  0
    4.9599   -3.7660   -5.3173 H   0  0  0  0  0  0  0  0  0  0  0  0
    6.8576   -2.2067   -5.0481 H   0  0  0  0  0  0  0  0  0  0  0  0
    5.6853    2.9789   -3.6332 H   0  0  0  0  0  0  0  0  0  0  0  0
  1  2  1  0  0  0  0
  1 24  1  0  0  0  0
  1 25  1  0  0  0  0
  1 26  1  0  0  0  0
  2  3  1  0  0  0  0
  3  5  1  0  0  0  0
  3  4  2  0  0  0  0
  5 22  1  0  0  0  0
  5 14  1  0  0  0  0
  5  6  1  0  0  0  0
  6  7  1  0  0  0  0
  6 27  1  0  0  0  0
  6 28  1  0  0  0  0
  7  8  2  0  0  0  0
  7 12  1  0  0  0  0
  8  9  1  0  0  0  0
  8 29  1  0  0  0  0
  9 10  2  0  0  0  0
  9 30  1  0  0  0  0
 10 11  1  0  0  0  0
 10 31  1  0  0  0  0
 11 12  2  0  0  0  0
 11 32  1  0  0  0  0
 12 13  1  0  0  0  0
 14 15  1  0  0  0  0
 14 33  1  0  0  0  0
 14 34  1  0  0  0  0
 15 16  2  0  0  0  0
 15 20  1  0  0  0  0
 16 17  1  0  0  0  0
 16 35  1  0  0  0  0
 17 18  2  0  0  0  0
 17 36  1  0  0  0  0
 18 19  1  0  0  0  0
 18 37  1  0  0  0  0
 19 20  2  0  0  0  0
 19 38  1  0  0  0  0
 20 21  1  0  0  0  0
 22 23  3  0  0  0  0
 23 39  1  0  0  0  0
M  END
$$$$