33313429 33313428
 OpenBabel01151412133D

 37 38  0  0  1  0  0  0  0  0999 V2000
    5.4927    0.9076   -6.2354 C   0  0  0  0  0  0  0  0  0  0  0  0
    5.2036    0.6919   -5.0879 C   0  0  0  0  0  0  0  0  0  0  0  0
    4.8449    0.4173   -3.6960 C   0  0  0  0  0  0  0  0  0  0  0  0
    5.3485    1.4624   -2.8342 N   0  0  0  0  0  0  0  0  0  0  0  0
    5.1095    1.4230   -1.4756 C   0  0  0  0  0  0  0  0  0  0  0  0
    4.4345    0.5306   -0.9680 O   0  0  0  0  0  0  0  0  0  0  0  0
    5.7303    2.5487   -0.6823 C   0  0  3  0  0  0  0  0  0  0  0  0
    4.9011    3.8031   -0.7194 C   0  0  0  0  0  0  0  0  0  0  0  0
    5.2148    4.7359   -1.4621 O   0  0  0  0  0  0  0  0  0  0  0  0
    3.6222    3.9085    0.0864 C   0  0  0  0  0  0  0  0  0  0  0  0
    2.3938    4.4000   -0.6999 C   0  0  0  0  0  0  0  0  0  0  0  0
    2.4443    2.9889   -0.2224 C   0  0  0  0  0  0  0  0  0  0  0  0
    3.7540    4.4721    1.5035 C   0  0  0  0  0  0  0  0  0  0  0  0
    3.8561    5.8563    1.7282 C   0  0  0  0  0  0  0  0  0  0  0  0
    3.9568    6.3805    3.0186 C   0  0  0  0  0  0  0  0  0  0  0  0
    3.9793    5.5267    4.1181 C   0  0  0  0  0  0  0  0  0  0  0  0
    3.8963    4.1446    3.9346 C   0  0  0  0  0  0  0  0  0  0  0  0
    3.7674    3.6352    2.6342 C   0  0  0  0  0  0  0  0  0  0  0  0
    3.9498    3.2238    5.1179 C   0  0  0  0  0  0  0  0  0  0  0  0
    6.0604    2.1149    0.6744 C   0  0  0  0  0  0  0  0  0  0  0  0
    6.3817    1.7654    1.7343 N   0  0  0  0  0  0  0  0  0  0  0  0
    5.7440    1.0937   -7.2539 H   0  0  0  0  0  0  0  0  0  0  0  0
    5.2717   -0.5352   -3.3625 H   0  0  0  0  0  0  0  0  0  0  0  0
    3.7580    0.3594   -3.5735 H   0  0  0  0  0  0  0  0  0  0  0  0
    5.8466    2.2367   -3.2599 H   0  0  0  0  0  0  0  0  0  0  0  0
    6.6867    2.7947   -1.1660 H   0  0  0  0  0  0  0  0  0  0  0  0
    2.5041    4.5877   -1.7630 H   0  0  0  0  0  0  0  0  0  0  0  0
    1.6952    5.0742   -0.2156 H   0  0  0  0  0  0  0  0  0  0  0  0
    1.7737    2.7103    0.5850 H   0  0  0  0  0  0  0  0  0  0  0  0
    2.5215    2.2224   -0.9831 H   0  0  0  0  0  0  0  0  0  0  0  0
    3.8473    6.5409    0.8815 H   0  0  0  0  0  0  0  0  0  0  0  0
    4.0211    7.4556    3.1648 H   0  0  0  0  0  0  0  0  0  0  0  0
    4.0672    5.9429    5.1190 H   0  0  0  0  0  0  0  0  0  0  0  0
    3.6885    2.5571    2.4982 H   0  0  0  0  0  0  0  0  0  0  0  0
    3.9333    2.1727    4.8109 H   0  0  0  0  0  0  0  0  0  0  0  0
    3.0905    3.3989    5.7725 H   0  0  0  0  0  0  0  0  0  0  0  0
    4.8734    3.3898    5.6822 H   0  0  0  0  0  0  0  0  0  0  0  0
  1  2  3  0  0  0  0
  1 22  1  0  0  0  0
  2  3  1  0  0  0  0
  3  4  1  0  0  0  0
  3 23  1  0  0  0  0
  3 24  1  0  0  0  0
  4  5  1  0  0  0  0
  4 25  1  0  0  0  0
  5  7  1  0  0  0  0
  5  6  2  0  0  0  0
  7 20  1  0  0  0  0
  7  8  1  0  0  0  0
  7 26  1  0  0  0  0
  8 10  1  0  0  0  0
  8  9  2  0  0  0  0
 10 12  1  0  0  0  0
 10 11  1  0  0  0  0
 10 13  1  0  0  0  0
 11 12  1  0  0  0  0
 11 27  1  0  0  0  0
 11 28  1  0  0  0  0
 12 29  1  0  0  0  0
 12 30  1  0  0  0  0
 13 14  2  0  0  0  0
 13 18  1  0  0  0  0
 14 15  1  0  0  0  0
 14 31  1  0  0  0  0
 15 16  2  0  0  0  0
 15 32  1  0  0  0  0
 16 17  1  0  0  0  0
 16 33  1  0  0  0  0
 17 18  2  0  0  0  0
 17 19  1  0  0  0  0
 18 34  1  0  0  0  0
 19 35  1  0  0  0  0
 19 36  1  0  0  0  0
 19 37  1  0  0  0  0
 20 21  3  0  0  0  0
M  END
$$$$