207350430 207350431
 OpenBabel01151412053D

 31 31  0  0  0  0  0  0  0  0999 V2000
    1.1112   -0.4084   -0.0370 C   0  0  0  0  0  0  0  0  0  0  0  0
    2.3051   -0.2934   -0.0846 C   0  0  0  0  0  0  0  0  0  0  0  0
    3.7174   -0.1533   -0.1376 C   0  0  0  0  0  0  0  0  0  0  0  0
    4.4729   -0.9633   -0.8936 C   0  0  0  0  0  0  0  0  0  0  0  0
    5.9281   -0.8723   -0.9629 C   0  0  0  0  0  0  0  0  0  0  0  0
    6.5481    0.1907   -1.5325 C   0  0  0  0  0  0  0  0  0  0  0  0
    5.8427    1.3300   -2.2310 C   0  0  0  0  0  0  0  0  0  0  0  0
    8.0540    0.3413   -1.5504 C   0  0  0  0  0  0  0  0  0  0  0  0
    8.7932   -0.6197   -0.6288 C   0  0  0  0  0  0  0  0  0  0  0  0
    8.2033   -2.0165   -0.7393 C   0  0  0  0  0  0  0  0  0  0  0  0
    6.7028   -2.0558   -0.3421 C   0  0  0  0  0  0  0  0  0  0  0  0
    6.1600   -3.4253   -0.8128 C   0  0  0  0  0  0  0  0  0  0  0  0
    6.5820   -1.9914    1.1974 C   0  0  0  0  0  0  0  0  0  0  0  0
    0.0518   -0.5110    0.0047 H   0  0  0  0  0  0  0  0  0  0  0  0
    4.1716    0.6322    0.4592 H   0  0  0  0  0  0  0  0  0  0  0  0
    4.0101   -1.7602   -1.4716 H   0  0  0  0  0  0  0  0  0  0  0  0
    4.7820    1.1432   -2.4161 H   0  0  0  0  0  0  0  0  0  0  0  0
    6.3006    1.5098   -3.2100 H   0  0  0  0  0  0  0  0  0  0  0  0
    5.9300    2.2457   -1.6373 H   0  0  0  0  0  0  0  0  0  0  0  0
    8.4015    0.1907   -2.5806 H   0  0  0  0  0  0  0  0  0  0  0  0
    8.3275    1.3655   -1.2683 H   0  0  0  0  0  0  0  0  0  0  0  0
    9.8558   -0.6397   -0.8973 H   0  0  0  0  0  0  0  0  0  0  0  0
    8.7403   -0.2627    0.4061 H   0  0  0  0  0  0  0  0  0  0  0  0
    8.7834   -2.7067   -0.1137 H   0  0  0  0  0  0  0  0  0  0  0  0
    8.3261   -2.3646   -1.7745 H   0  0  0  0  0  0  0  0  0  0  0  0
    6.1393   -3.4894   -1.9070 H   0  0  0  0  0  0  0  0  0  0  0  0
    5.1452   -3.6150   -0.4458 H   0  0  0  0  0  0  0  0  0  0  0  0
    6.7890   -4.2442   -0.4437 H   0  0  0  0  0  0  0  0  0  0  0  0
    6.9030   -1.0213    1.5921 H   0  0  0  0  0  0  0  0  0  0  0  0
    7.1959   -2.7645    1.6739 H   0  0  0  0  0  0  0  0  0  0  0  0
    5.5493   -2.1521    1.5282 H   0  0  0  0  0  0  0  0  0  0  0  0
  1  2  3  0  0  0  0
  1 14  1  0  0  0  0
  2  3  1  0  0  0  0
  3  4  2  0  0  0  0
  3 15  1  0  0  0  0
  4  5  1  0  0  0  0
  4 16  1  0  0  0  0
  5 11  1  0  0  0  0
  5  6  2  0  0  0  0
  6  8  1  0  0  0  0
  6  7  1  0  0  0  0
  7 17  1  0  0  0  0
  7 18  1  0  0  0  0
  7 19  1  0  0  0  0
  8  9  1  0  0  0  0
  8 20  1  0  0  0  0
  8 21  1  0  0  0  0
  9 10  1  0  0  0  0
  9 22  1  0  0  0  0
  9 23  1  0  0  0  0
 10 11  1  0  0  0  0
 10 24  1  0  0  0  0
 10 25  1  0  0  0  0
 11 13  1  0  0  0  0
 11 12  1  0  0  0  0
 12 26  1  0  0  0  0
 12 27  1  0  0  0  0
 12 28  1  0  0  0  0
 13 29  1  0  0  0  0
 13 30  1  0  0  0  0
 13 31  1  0  0  0  0
M  END
$$$$