44392232 44392231
 OpenBabel01151412063D

 16 16  0  0  0  0  0  0  0  0999 V2000
    8.9783    4.4733    1.1068 C   0  0  0  0  0  0  0  0  0  0  0  0
    8.3446    3.4736    0.8948 C   0  0  0  0  0  0  0  0  0  0  0  0
    7.5970    2.2833    0.6424 C   0  0  0  0  0  0  0  0  0  0  0  0
    6.2101    2.2897    0.6668 C   0  0  0  0  0  0  0  0  0  0  0  0
    5.5422    1.0965    0.4124 C   0  0  0  0  0  0  0  0  0  0  0  0
    6.2819   -0.0527    0.1445 C   0  0  0  0  0  0  0  0  0  0  0  0
    7.6729    0.0352    0.1410 C   0  0  0  0  0  0  0  0  0  0  0  0
    8.3429    1.1898    0.3868 N   0  0  0  0  0  0  0  0  0  0  0  0
    8.5281   -1.1617   -0.1394 C   0  0  0  0  0  0  0  0  0  0  0  0
    9.7444   -1.2093   -0.1702 O   0  0  0  0  0  0  0  0  0  0  0  0
    7.8050   -2.2785   -0.3759 O   0  0  0  0  0  0  0  0  0  0  0  0
    9.5529    5.3496    1.2922 H   0  0  0  0  0  0  0  0  0  0  0  0
    5.6593    3.2001    0.8785 H   0  0  0  0  0  0  0  0  0  0  0  0
    4.4562    1.0613    0.4226 H   0  0  0  0  0  0  0  0  0  0  0  0
    5.7764   -0.9917   -0.0560 H   0  0  0  0  0  0  0  0  0  0  0  0
    8.4972   -2.9550   -0.5379 H   0  0  0  0  0  0  0  0  0  0  0  0
  1  2  3  0  0  0  0
  1 12  1  0  0  0  0
  2  3  1  0  0  0  0
  3  8  1  0  0  0  0
  3  4  2  0  0  0  0
  4  5  1  0  0  0  0
  4 13  1  0  0  0  0
  5  6  2  0  0  0  0
  5 14  1  0  0  0  0
  6  7  1  0  0  0  0
  6 15  1  0  0  0  0
  7  8  2  0  0  0  0
  7  9  1  0  0  0  0
  9 11  1  0  0  0  0
  9 10  2  0  0  0  0
 11 16  1  0  0  0  0
M  END
$$$$