207350700 207350701
 OpenBabel01151412113D

 51 50  0  0  1  0  0  0  0  0999 V2000
   12.0868   -9.3225   -7.4503 C   0  0  0  0  0  0  0  0  0  0  0  0
   12.4238   -8.2664   -6.9874 C   0  0  0  0  0  0  0  0  0  0  0  0
   12.8564   -6.9739   -6.4328 C   0  0  0  0  0  0  0  0  0  0  0  0
   11.7095   -5.9615   -6.4167 C   0  0  0  0  0  0  0  0  0  0  0  0
   12.1923   -4.5770   -5.9717 C   0  0  0  0  0  0  0  0  0  0  0  0
   11.0557   -3.5489   -5.9997 C   0  0  0  0  0  0  0  0  0  0  0  0
   11.5302   -2.1125   -5.7384 C   0  0  0  0  0  0  0  0  0  0  0  0
   12.2691   -1.4966   -6.9370 C   0  0  0  0  0  0  0  0  0  0  0  0
   12.8104   -0.1311   -6.6149 C   0  0  0  0  0  0  0  0  0  0  0  0
   12.5164    1.0441   -7.1974 C   0  0  0  0  0  0  0  0  0  0  0  0
   11.5417    1.3088   -8.3153 C   0  0  0  0  0  0  0  0  0  0  0  0
   11.8924    2.5634   -9.1356 C   0  0  0  0  0  0  0  0  0  0  0  0
   12.8739    2.3446  -10.2935 C   0  0  0  0  0  0  0  0  0  0  0  0
   12.3772    1.4912  -11.4681 C   0  0  0  0  0  0  0  0  0  0  0  0
   11.0108    1.8383  -12.0790 C   0  0  0  0  0  0  0  0  0  0  0  0
   11.0175    2.6438  -13.3885 C   0  0  0  0  0  0  0  0  0  0  0  0
   11.0835    4.1745  -13.3365 C   0  0  3  0  0  0  0  0  0  0  0  0
    9.8777    4.8444  -12.6542 C   0  0  0  0  0  0  0  0  0  0  0  0
    9.3450    4.4474  -11.6299 O   0  0  0  0  0  0  0  0  0  0  0  0
    9.5002    6.0025  -13.2498 O   0  0  0  0  0  0  0  0  0  0  0  0
   12.3103    4.6496  -12.8153 O   0  0  0  0  0  0  0  0  0  0  0  0
   11.7938  -10.2582   -7.8670 H   0  0  0  0  0  0  0  0  0  0  0  0
   13.6867   -6.5862   -7.0349 H   0  0  0  0  0  0  0  0  0  0  0  0
   13.2386   -7.1178   -5.4153 H   0  0  0  0  0  0  0  0  0  0  0  0
   10.9130   -6.3125   -5.7483 H   0  0  0  0  0  0  0  0  0  0  0  0
   11.2702   -5.8868   -7.4198 H   0  0  0  0  0  0  0  0  0  0  0  0
   13.0090   -4.2600   -6.6279 H   0  0  0  0  0  0  0  0  0  0  0  0
   12.6023   -4.6387   -4.9561 H   0  0  0  0  0  0  0  0  0  0  0  0
   10.3246   -3.8207   -5.2275 H   0  0  0  0  0  0  0  0  0  0  0  0
   10.5294   -3.5904   -6.9605 H   0  0  0  0  0  0  0  0  0  0  0  0
   12.1622   -2.0925   -4.8414 H   0  0  0  0  0  0  0  0  0  0  0  0
   10.6503   -1.4955   -5.5154 H   0  0  0  0  0  0  0  0  0  0  0  0
   11.5978   -1.4695   -7.8002 H   0  0  0  0  0  0  0  0  0  0  0  0
   13.1208   -2.1254   -7.2175 H   0  0  0  0  0  0  0  0  0  0  0  0
   13.5315   -0.1106   -5.7971 H   0  0  0  0  0  0  0  0  0  0  0  0
   13.0043    1.9260   -6.7817 H   0  0  0  0  0  0  0  0  0  0  0  0
   10.5656    1.4876   -7.8471 H   0  0  0  0  0  0  0  0  0  0  0  0
   11.4297    0.4401   -8.9697 H   0  0  0  0  0  0  0  0  0  0  0  0
   12.3171    3.3291   -8.4729 H   0  0  0  0  0  0  0  0  0  0  0  0
   10.9673    3.0066   -9.5170 H   0  0  0  0  0  0  0  0  0  0  0  0
   13.7908    1.8859   -9.9013 H   0  0  0  0  0  0  0  0  0  0  0  0
   13.1818    3.3228  -10.6717 H   0  0  0  0  0  0  0  0  0  0  0  0
   12.3230    0.4538  -11.1126 H   0  0  0  0  0  0  0  0  0  0  0  0
   13.1454    1.4878  -12.2509 H   0  0  0  0  0  0  0  0  0  0  0  0
   10.3221    2.2623  -11.3498 H   0  0  0  0  0  0  0  0  0  0  0  0
   10.5599    0.8714  -12.3467 H   0  0  0  0  0  0  0  0  0  0  0  0
   10.0931    2.3858  -13.9238 H   0  0  0  0  0  0  0  0  0  0  0  0
   11.8442    2.2812  -14.0131 H   0  0  0  0  0  0  0  0  0  0  0  0
   11.0619    4.4954  -14.3862 H   0  0  0  0  0  0  0  0  0  0  0  0
   10.0730    6.2679  -13.9945 H   0  0  0  0  0  0  0  0  0  0  0  0
   12.2289    4.6242  -11.8421 H   0  0  0  0  0  0  0  0  0  0  0  0
  1  2  3  0  0  0  0
  1 22  1  0  0  0  0
  2  3  1  0  0  0  0
  3  4  1  0  0  0  0
  3 23  1  0  0  0  0
  3 24  1  0  0  0  0
  4  5  1  0  0  0  0
  4 25  1  0  0  0  0
  4 26  1  0  0  0  0
  5  6  1  0  0  0  0
  5 27  1  0  0  0  0
  5 28  1  0  0  0  0
  6  7  1  0  0  0  0
  6 29  1  0  0  0  0
  6 30  1  0  0  0  0
  7  8  1  0  0  0  0
  7 31  1  0  0  0  0
  7 32  1  0  0  0  0
  8  9  1  0  0  0  0
  8 33  1  0  0  0  0
  8 34  1  0  0  0  0
  9 10  2  0  0  0  0
  9 35  1  0  0  0  0
 10 11  1  0  0  0  0
 10 36  1  0  0  0  0
 11 12  1  0  0  0  0
 11 37  1  0  0  0  0
 11 38  1  0  0  0  0
 12 13  1  0  0  0  0
 12 39  1  0  0  0  0
 12 40  1  0  0  0  0
 13 14  1  0  0  0  0
 13 41  1  0  0  0  0
 13 42  1  0  0  0  0
 14 15  1  0  0  0  0
 14 43  1  0  0  0  0
 14 44  1  0  0  0  0
 15 16  1  0  0  0  0
 15 45  1  0  0  0  0
 15 46  1  0  0  0  0
 16 17  1  0  0  0  0
 16 47  1  0  0  0  0
 16 48  1  0  0  0  0
 17 21  1  0  0  0  0
 17 18  1  0  0  0  0
 17 49  1  0  0  0  0
 18 20  1  0  0  0  0
 18 19  2  0  0  0  0
 20 50  1  0  0  0  0
 21 51  1  0  0  0  0
M  END
$$$$