37281157 37281156
 OpenBabel01151412123D

 28 28  0  0  0  0  0  0  0  0999 V2000
    0.4136   -0.6561   -0.1797 C   0  0  0  0  0  0  0  0  0  0  0  0
    1.8348   -0.5750   -0.0643 O   0  0  0  0  0  0  0  0  0  0  0  0
    2.3195   -1.0354    1.1168 C   0  0  0  0  0  0  0  0  0  0  0  0
    1.6524   -1.4948    2.0304 O   0  0  0  0  0  0  0  0  0  0  0  0
    3.8006   -0.8933    1.1670 C   0  0  0  0  0  0  0  0  0  0  0  0
    4.4618   -1.2599    2.3454 C   0  0  0  0  0  0  0  0  0  0  0  0
    5.8494   -1.1270    2.4460 C   0  0  0  0  0  0  0  0  0  0  0  0
    6.6000   -0.6289    1.3706 C   0  0  0  0  0  0  0  0  0  0  0  0
    5.9349   -0.2726    0.1893 C   0  0  0  0  0  0  0  0  0  0  0  0
    4.5459   -0.4032    0.0868 C   0  0  0  0  0  0  0  0  0  0  0  0
    8.0961   -0.4541    1.4966 C   0  0  0  0  0  0  0  0  0  0  0  0
    8.7599   -1.7282    1.7561 N   0  0  0  0  0  0  0  0  0  0  0  0
   10.2053   -1.5516    1.8438 C   0  0  0  0  0  0  0  0  0  0  0  0
   10.8457   -2.8503    2.0813 C   0  0  0  0  0  0  0  0  0  0  0  0
   11.3733   -3.9110    2.2781 C   0  0  0  0  0  0  0  0  0  0  0  0
    0.1250   -0.1988   -1.1303 H   0  0  0  0  0  0  0  0  0  0  0  0
   -0.0736   -0.1037    0.6301 H   0  0  0  0  0  0  0  0  0  0  0  0
    0.0920   -1.7021   -0.1853 H   0  0  0  0  0  0  0  0  0  0  0  0
    3.9004   -1.6480    3.1934 H   0  0  0  0  0  0  0  0  0  0  0  0
    6.3496   -1.4171    3.3688 H   0  0  0  0  0  0  0  0  0  0  0  0
    6.4916    0.1153   -0.6612 H   0  0  0  0  0  0  0  0  0  0  0  0
    4.0595   -0.1145   -0.8417 H   0  0  0  0  0  0  0  0  0  0  0  0
    8.2873    0.2538    2.3131 H   0  0  0  0  0  0  0  0  0  0  0  0
    8.4920   -0.0035    0.5779 H   0  0  0  0  0  0  0  0  0  0  0  0
    8.5485   -2.3763    0.9990 H   0  0  0  0  0  0  0  0  0  0  0  0
   10.4547   -0.8708    2.6646 H   0  0  0  0  0  0  0  0  0  0  0  0
   10.5983   -1.1196    0.9154 H   0  0  0  0  0  0  0  0  0  0  0  0
   11.8358   -4.8531    2.4593 H   0  0  0  0  0  0  0  0  0  0  0  0
  1  2  1  0  0  0  0
  1 16  1  0  0  0  0
  1 17  1  0  0  0  0
  1 18  1  0  0  0  0
  2  3  1  0  0  0  0
  3  5  1  0  0  0  0
  3  4  2  0  0  0  0
  5  6  2  0  0  0  0
  5 10  1  0  0  0  0
  6  7  1  0  0  0  0
  6 19  1  0  0  0  0
  7  8  2  0  0  0  0
  7 20  1  0  0  0  0
  8  9  1  0  0  0  0
  8 11  1  0  0  0  0
  9 10  2  0  0  0  0
  9 21  1  0  0  0  0
 10 22  1  0  0  0  0
 11 12  1  0  0  0  0
 11 23  1  0  0  0  0
 11 24  1  0  0  0  0
 12 13  1  0  0  0  0
 12 25  1  0  0  0  0
 13 14  1  0  0  0  0
 13 26  1  0  0  0  0
 13 27  1  0  0  0  0
 14 15  3  0  0  0  0
 15 28  1  0  0  0  0
M  END
$$$$