46212576 46212575
 OpenBabel01151412103D

 35 36  0  0  0  0  0  0  0  0999 V2000
    2.4958   -2.0193    1.9896 C   0  0  0  0  0  0  0  0  0  0  0  0
    2.8277   -0.7340    1.8053 C   0  0  0  0  0  0  0  0  0  0  0  0
    3.0667   -0.1150    0.4560 C   0  0  0  0  0  0  0  0  0  0  0  0
    4.4998   -0.0164    0.2027 N   0  0  0  0  0  0  0  0  0  0  0  0
    5.0997   -1.1349   -0.3883 C   0  0  0  0  0  0  0  0  0  0  0  0
    4.4810   -2.0905   -0.8581 O   0  0  0  0  0  0  0  0  0  0  0  0
    6.5878   -1.1318   -0.4501 C   0  0  0  0  0  0  0  0  0  0  0  0
    7.3495   -2.1362    0.0043 C   0  0  0  0  0  0  0  0  0  0  0  0
    6.8176   -3.2549    0.8095 C   0  0  0  0  0  0  0  0  0  0  0  0
    5.8341   -3.1510    1.5276 O   0  0  0  0  0  0  0  0  0  0  0  0
    7.6051   -4.3731    0.7420 N   0  0  0  0  0  0  0  0  0  0  0  0
    7.2714   -5.5648    1.4830 C   0  0  0  0  0  0  0  0  0  0  0  0
    8.5035   -6.2795    1.8348 C   0  0  0  0  0  0  0  0  0  0  0  0
    9.5142   -6.8530    2.1339 C   0  0  0  0  0  0  0  0  0  0  0  0
    7.2924    0.2776   -1.1461 S   0  0  0  0  0  0  0  0  0  0  0  0
    6.5011    1.4286   -0.0321 C   0  0  0  0  0  0  0  0  0  0  0  0
    5.2259    1.1842    0.5222 C   0  0  0  0  0  0  0  0  0  0  0  0
    4.6861    2.1640    1.3728 C   0  0  0  0  0  0  0  0  0  0  0  0
    5.3900    3.3358    1.6730 C   0  0  0  0  0  0  0  0  0  0  0  0
    6.6421    3.5621    1.1156 C   0  0  0  0  0  0  0  0  0  0  0  0
    7.1948    2.6133    0.2607 C   0  0  0  0  0  0  0  0  0  0  0  0
    2.3506   -2.4252    2.9850 H   0  0  0  0  0  0  0  0  0  0  0  0
    2.4169   -2.7076    1.1516 H   0  0  0  0  0  0  0  0  0  0  0  0
    2.9305   -0.0940    2.6762 H   0  0  0  0  0  0  0  0  0  0  0  0
    2.5833    0.8654    0.3849 H   0  0  0  0  0  0  0  0  0  0  0  0
    2.5967   -0.7224   -0.3274 H   0  0  0  0  0  0  0  0  0  0  0  0
    8.4271   -2.1005   -0.0945 H   0  0  0  0  0  0  0  0  0  0  0  0
    8.3562   -4.4323    0.0698 H   0  0  0  0  0  0  0  0  0  0  0  0
    6.6323   -6.1828    0.8434 H   0  0  0  0  0  0  0  0  0  0  0  0
    6.7041   -5.3075    2.3837 H   0  0  0  0  0  0  0  0  0  0  0  0
   10.4121   -7.3551    2.4125 H   0  0  0  0  0  0  0  0  0  0  0  0
    3.7195    2.0366    1.8491 H   0  0  0  0  0  0  0  0  0  0  0  0
    4.9555    4.0704    2.3473 H   0  0  0  0  0  0  0  0  0  0  0  0
    7.1881    4.4735    1.3459 H   0  0  0  0  0  0  0  0  0  0  0  0
    8.1741    2.8023   -0.1745 H   0  0  0  0  0  0  0  0  0  0  0  0
  1  2  2  0  0  0  0
  1 22  1  0  0  0  0
  1 23  1  0  0  0  0
  2  3  1  0  0  0  0
  2 24  1  0  0  0  0
  3  4  1  0  0  0  0
  3 25  1  0  0  0  0
  3 26  1  0  0  0  0
  4  5  1  0  0  0  0
  4 17  1  0  0  0  0
  5  7  1  0  0  0  0
  5  6  2  0  0  0  0
  7 15  1  0  0  0  0
  7  8  2  0  0  0  0
  8  9  1  0  0  0  0
  8 27  1  0  0  0  0
  9 11  1  0  0  0  0
  9 10  2  0  0  0  0
 11 12  1  0  0  0  0
 11 28  1  0  0  0  0
 12 13  1  0  0  0  0
 12 29  1  0  0  0  0
 12 30  1  0  0  0  0
 13 14  3  0  0  0  0
 14 31  1  0  0  0  0
 15 16  1  0  0  0  0
 16 21  1  0  0  0  0
 16 17  2  0  0  0  0
 17 18  1  0  0  0  0
 18 19  2  0  0  0  0
 18 32  1  0  0  0  0
 19 20  1  0  0  0  0
 19 33  1  0  0  0  0
 20 21  2  0  0  0  0
 20 34  1  0  0  0  0
 21 35  1  0  0  0  0
M  END
$$$$