32034166 32034165
 OpenBabel01151412143D

 47 49  0  0  1  0  0  0  0  0999 V2000
    7.2903    0.3547   -0.7768 C   0  0  0  0  0  0  0  0  0  0  0  0
    6.2599    0.9718   -0.8477 C   0  0  0  0  0  0  0  0  0  0  0  0
    4.9939    1.7189   -0.9694 C   0  0  0  0  0  0  0  0  0  0  0  0
    3.9269    1.0685   -0.1907 N   0  0  0  0  0  0  0  0  0  0  0  0
    2.5588    1.4003   -0.6546 C   0  0  3  0  0  0  0  0  0  0  0  0
    2.2734    0.9471   -2.1174 C   0  0  0  0  0  0  0  0  0  0  0  0
    2.2751    2.1904   -3.0194 C   0  0  0  0  0  0  0  0  0  0  0  0
    1.9522    3.2733   -2.0429 C   0  0  0  0  0  0  0  0  0  0  0  0
    2.1422    2.8502   -0.7204 C   0  0  0  0  0  0  0  0  0  0  0  0
    1.8334    3.7030    0.3309 C   0  0  0  0  0  0  0  0  0  0  0  0
    1.3611    4.9873    0.0450 C   0  0  0  0  0  0  0  0  0  0  0  0
    1.1957    5.4093   -1.2809 C   0  0  0  0  0  0  0  0  0  0  0  0
    1.4967    4.5504   -2.3376 C   0  0  0  0  0  0  0  0  0  0  0  0
    4.1410    1.3451    1.2526 C   0  0  0  0  0  0  0  0  0  0  0  0
    3.1310    0.6303    2.1528 C   0  0  0  0  0  0  0  0  0  0  0  0
    2.3695    1.2494    2.8907 O   0  0  0  0  0  0  0  0  0  0  0  0
    3.1757   -0.7443    2.0839 N   0  0  0  0  0  0  0  0  0  0  0  0
    2.2778   -1.6288    2.8372 C   0  0  3  0  0  0  0  0  0  0  0  0
    2.4891   -1.4243    4.3336 C   0  0  0  0  0  0  0  0  0  0  0  0
    2.5885   -2.5455    5.3509 C   0  0  0  0  0  0  0  0  0  0  0  0
    3.8130   -1.7517    4.9950 C   0  0  0  0  0  0  0  0  0  0  0  0
    0.8368   -1.3152    2.6177 C   0  0  0  0  0  0  0  0  0  0  0  0
   -0.2928   -1.1197    2.4218 N   0  0  0  0  0  0  0  0  0  0  0  0
    2.5134   -3.0775    2.3787 C   0  0  0  0  0  0  0  0  0  0  0  0
    8.2005   -0.1953   -0.7279 H   0  0  0  0  0  0  0  0  0  0  0  0
    4.7657    1.7267   -2.0377 H   0  0  0  0  0  0  0  0  0  0  0  0
    5.1331    2.7655   -0.6712 H   0  0  0  0  0  0  0  0  0  0  0  0
    1.8338    0.8588   -0.0349 H   0  0  0  0  0  0  0  0  0  0  0  0
    2.9601    0.1738   -2.4798 H   0  0  0  0  0  0  0  0  0  0  0  0
    1.2716    0.4947   -2.1504 H   0  0  0  0  0  0  0  0  0  0  0  0
    3.2515    2.3700   -3.4785 H   0  0  0  0  0  0  0  0  0  0  0  0
    1.5181    2.1056   -3.8050 H   0  0  0  0  0  0  0  0  0  0  0  0
    1.9121    3.3785    1.3642 H   0  0  0  0  0  0  0  0  0  0  0  0
    1.0972    5.6570    0.8602 H   0  0  0  0  0  0  0  0  0  0  0  0
    0.8097    6.4051   -1.4848 H   0  0  0  0  0  0  0  0  0  0  0  0
    1.3466    4.8695   -3.3643 H   0  0  0  0  0  0  0  0  0  0  0  0
    4.1155    2.4172    1.4749 H   0  0  0  0  0  0  0  0  0  0  0  0
    5.1270    0.9805    1.5685 H   0  0  0  0  0  0  0  0  0  0  0  0
    3.7716   -1.1418    1.3671 H   0  0  0  0  0  0  0  0  0  0  0  0
    2.0193   -0.5044    4.6827 H   0  0  0  0  0  0  0  0  0  0  0  0
    2.5573   -3.5830    5.0427 H   0  0  0  0  0  0  0  0  0  0  0  0
    2.1417   -2.3776    6.3264 H   0  0  0  0  0  0  0  0  0  0  0  0
    4.1932   -1.0504    5.7310 H   0  0  0  0  0  0  0  0  0  0  0  0
    4.5891   -2.2400    4.4182 H   0  0  0  0  0  0  0  0  0  0  0  0
    2.3445   -3.1795    1.2994 H   0  0  0  0  0  0  0  0  0  0  0  0
    1.8318   -3.7794    2.8745 H   0  0  0  0  0  0  0  0  0  0  0  0
    3.5389   -3.4058    2.5785 H   0  0  0  0  0  0  0  0  0  0  0  0
  1  2  3  0  0  0  0
  1 25  1  0  0  0  0
  2  3  1  0  0  0  0
  3  4  1  0  0  0  0
  3 26  1  0  0  0  0
  3 27  1  0  0  0  0
  4 14  1  0  0  0  0
  4  5  1  0  0  0  0
  5  6  1  0  0  0  0
  5  9  1  0  0  0  0
  5 28  1  0  0  0  0
  6  7  1  0  0  0  0
  6 29  1  0  0  0  0
  6 30  1  0  0  0  0
  7  8  1  0  0  0  0
  7 31  1  0  0  0  0
  7 32  1  0  0  0  0
  8 13  1  0  0  0  0
  8  9  2  0  0  0  0
  9 10  1  0  0  0  0
 10 11  2  0  0  0  0
 10 33  1  0  0  0  0
 11 12  1  0  0  0  0
 11 34  1  0  0  0  0
 12 13  2  0  0  0  0
 12 35  1  0  0  0  0
 13 36  1  0  0  0  0
 14 15  1  0  0  0  0
 14 37  1  0  0  0  0
 14 38  1  0  0  0  0
 15 17  1  0  0  0  0
 15 16  2  0  0  0  0
 17 18  1  0  0  0  0
 17 39  1  0  0  0  0
 18 24  1  0  0  0  0
 18 22  1  0  0  0  0
 18 19  1  0  0  0  0
 19 21  1  0  0  0  0
 19 20  1  0  0  0  0
 19 40  1  0  0  0  0
 20 21  1  0  0  0  0
 20 41  1  0  0  0  0
 20 42  1  0  0  0  0
 21 43  1  0  0  0  0
 21 44  1  0  0  0  0
 22 23  3  0  0  0  0
 24 45  1  0  0  0  0
 24 46  1  0  0  0  0
 24 47  1  0  0  0  0
M  END
$$$$