48556085 48556084
 OpenBabel01151412103D

 78 81  0  0  1  0  0  0  0  0999 V2000
    4.9400   -0.5572   -9.3058 C   0  0  0  0  0  0  0  0  0  0  0  0
    4.5644   -2.0006   -9.0012 C   0  0  0  0  0  0  0  0  0  0  0  0
    3.1625   -2.1610   -8.3741 C   0  0  3  0  0  0  0  0  0  0  0  0
    2.7260   -3.6475   -8.3611 C   0  0  3  0  0  0  0  0  0  0  0  0
    3.6515   -4.6747   -7.7071 C   0  0  0  0  0  0  0  0  0  0  0  0
    3.6205   -5.8847   -7.8754 O   0  0  0  0  0  0  0  0  0  0  0  0
    4.4320   -4.1764   -6.7351 O   0  0  0  0  0  0  0  0  0  0  0  0
    1.4100   -3.8297   -7.7515 N   0  0  0  0  0  0  0  0  0  0  0  0
    0.3189   -4.2071   -8.5062 C   0  0  0  0  0  0  0  0  0  0  0  0
    0.3504   -4.1992   -9.7326 O   0  0  0  0  0  0  0  0  0  0  0  0
   -0.9102   -4.5764   -7.6611 C   0  0  0  0  0  0  0  0  0  0  0  0
   -1.8848   -5.3822   -8.2962 O   0  0  0  0  0  0  0  0  0  0  0  0
   -1.2670   -6.5490   -8.7687 N   0  0  0  0  0  0  0  0  0  0  0  0
   -1.9852   -7.1394   -9.6741 C   0  0  0  0  0  0  0  0  0  0  0  0
   -1.3560   -8.3199  -10.3760 C   0  0  0  0  0  0  0  0  0  0  0  0
   -1.8756   -8.5091  -11.7963 C   0  0  0  0  0  0  0  0  0  0  0  0
   -3.4087   -8.3321  -12.0306 C   0  0  1  0  0  0  0  0  0  0  0  0
   -4.0300   -7.3404  -11.0602 C   0  0  0  0  0  0  0  0  0  0  0  0
   -3.3834   -6.7806  -10.0268 C   0  0  0  0  0  0  0  0  0  0  0  0
   -5.4881   -7.0299  -11.2917 C   0  0  0  0  0  0  0  0  0  0  0  0
   -6.3166   -8.3078  -11.2254 C   0  0  0  0  0  0  0  0  0  0  0  0
   -5.7681   -9.4520  -12.1062 C   0  0  2  0  0  0  0  0  0  0  0  0
   -5.9507   -9.1317  -13.1414 H   0  0  0  0  0  0  0  0  0  0  0  0
   -4.2295   -9.6813  -11.9624 C   0  0  2  0  0  0  0  0  0  0  0  0
   -3.9213  -10.2487  -12.8539 H   0  0  0  0  0  0  0  0  0  0  0  0
   -3.8805  -10.6060  -10.7774 C   0  0  0  0  0  0  0  0  0  0  0  0
   -5.0331  -11.0115   -9.8746 C   0  0  0  0  0  0  0  0  0  0  0  0
   -6.3124  -11.5262  -10.5826 C   0  0  1  0  0  0  0  0  0  0  0  0
   -6.5905  -10.7510  -11.9113 C   0  0  1  0  0  0  0  0  0  0  0  0
   -7.6535  -10.4779  -11.9660 H   0  0  0  0  0  0  0  0  0  0  0  0
   -6.3374  -11.7538  -13.0618 C   0  0  0  0  0  0  0  0  0  0  0  0
   -5.6375  -12.9531  -12.4459 C   0  0  0  0  0  0  0  0  0  0  0  0
   -6.2112  -13.0292  -11.0333 C   0  0  1  0  0  0  0  0  0  0  0  0
   -5.3327  -13.7862  -10.2140 O   0  0  0  0  0  0  0  0  0  0  0  0
   -7.5123  -13.7341  -11.0695 C   0  0  0  0  0  0  0  0  0  0  0  0
   -8.5682  -14.3128  -11.0978 C   0  0  0  0  0  0  0  0  0  0  0  0
   -7.4615  -11.3164   -9.5633 C   0  0  0  0  0  0  0  0  0  0  0  0
   -3.5165   -7.7611  -13.4789 C   0  0  0  0  0  0  0  0  0  0  0  0
    3.0547   -1.4658   -7.0101 C   0  0  0  0  0  0  0  0  0  0  0  0
    4.2185   -0.1001   -9.9898 H   0  0  0  0  0  0  0  0  0  0  0  0
    5.9262   -0.5215   -9.7803 H   0  0  0  0  0  0  0  0  0  0  0  0
    4.9918    0.0482   -8.3966 H   0  0  0  0  0  0  0  0  0  0  0  0
    5.3308   -2.4218   -8.3415 H   0  0  0  0  0  0  0  0  0  0  0  0
    4.6084   -2.5685   -9.9388 H   0  0  0  0  0  0  0  0  0  0  0  0
    2.4489   -1.6429   -9.0319 H   0  0  0  0  0  0  0  0  0  0  0  0
    2.6811   -3.9615   -9.4129 H   0  0  0  0  0  0  0  0  0  0  0  0
    4.8920   -4.9676   -6.3817 H   0  0  0  0  0  0  0  0  0  0  0  0
    1.3675   -3.9308   -6.7456 H   0  0  0  0  0  0  0  0  0  0  0  0
   -1.3969   -3.6358   -7.3815 H   0  0  0  0  0  0  0  0  0  0  0  0
   -0.5917   -5.0730   -6.7372 H   0  0  0  0  0  0  0  0  0  0  0  0
   -1.4821   -9.2045   -9.7490 H   0  0  0  0  0  0  0  0  0  0  0  0
   -0.2720   -8.1513  -10.4268 H   0  0  0  0  0  0  0  0  0  0  0  0
   -1.3394   -7.7635  -12.4029 H   0  0  0  0  0  0  0  0  0  0  0  0
   -1.5433   -9.4807  -12.1829 H   0  0  0  0  0  0  0  0  0  0  0  0
   -3.8800   -6.0769   -9.3682 H   0  0  0  0  0  0  0  0  0  0  0  0
   -5.6239   -6.5353  -12.2595 H   0  0  0  0  0  0  0  0  0  0  0  0
   -5.8714   -6.3247  -10.5435 H   0  0  0  0  0  0  0  0  0  0  0  0
   -7.3437   -8.0768  -11.5362 H   0  0  0  0  0  0  0  0  0  0  0  0
   -6.3861   -8.6098  -10.1786 H   0  0  0  0  0  0  0  0  0  0  0  0
   -3.3870  -11.5055  -11.1630 H   0  0  0  0  0  0  0  0  0  0  0  0
   -3.1448  -10.1515  -10.1232 H   0  0  0  0  0  0  0  0  0  0  0  0
   -4.6714  -11.7457   -9.1443 H   0  0  0  0  0  0  0  0  0  0  0  0
   -5.2696  -10.1356   -9.2579 H   0  0  0  0  0  0  0  0  0  0  0  0
   -7.3029  -12.0690  -13.4777 H   0  0  0  0  0  0  0  0  0  0  0  0
   -5.7620  -11.3377  -13.8945 H   0  0  0  0  0  0  0  0  0  0  0  0
   -4.5530  -12.8102  -12.4333 H   0  0  0  0  0  0  0  0  0  0  0  0
   -5.8137  -13.8642  -13.0301 H   0  0  0  0  0  0  0  0  0  0  0  0
   -5.7832  -13.9134   -9.3618 H   0  0  0  0  0  0  0  0  0  0  0  0
   -9.5025  -14.8203  -11.1246 H   0  0  0  0  0  0  0  0  0  0  0  0
   -7.5056  -10.2820   -9.2070 H   0  0  0  0  0  0  0  0  0  0  0  0
   -7.3245  -11.9573   -8.6846 H   0  0  0  0  0  0  0  0  0  0  0  0
   -8.4444  -11.5302   -9.9949 H   0  0  0  0  0  0  0  0  0  0  0  0
   -4.5445   -7.6582  -13.8357 H   0  0  0  0  0  0  0  0  0  0  0  0
   -2.9975   -8.4124  -14.1922 H   0  0  0  0  0  0  0  0  0  0  0  0
   -3.0596   -6.7654  -13.5451 H   0  0  0  0  0  0  0  0  0  0  0  0
    3.8332   -1.7934   -6.3165 H   0  0  0  0  0  0  0  0  0  0  0  0
    2.0819   -1.6427   -6.5412 H   0  0  0  0  0  0  0  0  0  0  0  0
    3.1492   -0.3807   -7.1221 H   0  0  0  0  0  0  0  0  0  0  0  0
  1  2  1  0  0  0  0
  1 40  1  0  0  0  0
  1 41  1  0  0  0  0
  1 42  1  0  0  0  0
  2  3  1  0  0  0  0
  2 43  1  0  0  0  0
  2 44  1  0  0  0  0
  3 39  1  0  0  0  0
  3  4  1  0  0  0  0
  3 45  1  0  0  0  0
  4  8  1  0  0  0  0
  4  5  1  0  0  0  0
  4 46  1  0  0  0  0
  5  7  1  0  0  0  0
  5  6  2  0  0  0  0
  7 47  1  0  0  0  0
  8  9  1  0  0  0  0
  8 48  1  0  0  0  0
  9 11  1  0  0  0  0
  9 10  2  0  0  0  0
 11 12  1  0  0  0  0
 11 49  1  0  0  0  0
 11 50  1  0  0  0  0
 12 13  1  0  0  0  0
 13 14  2  3  0  0  0
 14 15  1  0  0  0  0
 14 19  1  0  0  0  0
 15 16  1  0  0  0  0
 15 51  1  0  0  0  0
 15 52  1  0  0  0  0
 16 17  1  0  0  0  0
 16 53  1  0  0  0  0
 16 54  1  0  0  0  0
 17 18  1  0  0  0  0
 17 24  1  0  0  0  0
 17 38  1  1  0  0  0
 18 20  1  0  0  0  0
 18 19  2  0  0  0  0
 19 55  1  0  0  0  0
 20 21  1  0  0  0  0
 20 56  1  0  0  0  0
 20 57  1  0  0  0  0
 21 22  1  0  0  0  0
 21 58  1  0  0  0  0
 21 59  1  0  0  0  0
 22 29  1  0  0  0  0
 22 24  1  0  0  0  0
 22 23  1  1  0  0  0
 24 26  1  0  0  0  0
 24 25  1  6  0  0  0
 26 27  1  0  0  0  0
 26 60  1  0  0  0  0
 26 61  1  0  0  0  0
 27 28  1  0  0  0  0
 27 62  1  0  0  0  0
 27 63  1  0  0  0  0
 28 29  1  0  0  0  0
 28 33  1  0  0  0  0
 28 37  1  1  0  0  0
 29 31  1  0  0  0  0
 29 30  1  1  0  0  0
 31 32  1  0  0  0  0
 31 64  1  0  0  0  0
 31 65  1  0  0  0  0
 32 33  1  0  0  0  0
 32 66  1  0  0  0  0
 32 67  1  0  0  0  0
 33 35  1  6  0  0  0
 33 34  1  0  0  0  0
 34 68  1  0  0  0  0
 35 36  3  0  0  0  0
 36 69  1  0  0  0  0
 37 70  1  0  0  0  0
 37 71  1  0  0  0  0
 37 72  1  0  0  0  0
 38 73  1  0  0  0  0
 38 74  1  0  0  0  0
 38 75  1  0  0  0  0
 39 76  1  0  0  0  0
 39 77  1  0  0  0  0
 39 78  1  0  0  0  0
M  END
$$$$