509491 509490
 OpenBabel01151412153D

 50 51  0  0  1  0  0  0  0  0999 V2000
    1.1406    0.3211   -2.6087 C   0  0  0  0  0  0  0  0  0  0  0  0
    1.7835   -0.5721   -2.1264 C   0  0  0  0  0  0  0  0  0  0  0  0
    2.5711   -1.6713   -1.5497 C   0  0  0  0  0  0  0  0  0  0  0  0
    3.9365   -1.4883   -1.9006 O   0  0  0  0  0  0  0  0  0  0  0  0
    4.9533   -2.5480   -1.2460 S   0  0  3  0  0  0  0  0  0  0  0  0
    4.3228   -3.9040   -1.3411 O   0  0  0  0  0  0  0  0  0  0  0  0
    6.0873   -2.4625   -2.3822 O   0  0  0  0  0  0  0  0  0  0  0  0
    7.3276   -3.1153   -2.0873 C   0  0  3  0  0  0  0  0  0  0  0  0
    7.2919   -4.5742   -2.5645 C   0  0  0  0  0  0  0  0  0  0  0  0
    7.1115   -4.6642   -4.0775 C   0  0  0  0  0  0  0  0  0  0  0  0
    8.2179   -3.9103   -4.8072 C   0  0  0  0  0  0  0  0  0  0  0  0
    8.3285   -2.4587   -4.3391 C   0  0  0  0  0  0  0  0  0  0  0  0
    8.4396   -2.3242   -2.8113 C   0  0  3  0  0  0  0  0  0  0  0  0
    9.7142   -2.8343   -2.3997 O   0  0  0  0  0  0  0  0  0  0  0  0
   10.6284   -2.0205   -1.7969 C   0  0  0  0  0  0  0  0  0  0  0  0
   10.5427   -0.6466   -1.6093 C   0  0  0  0  0  0  0  0  0  0  0  0
   11.5753    0.0522   -0.9623 C   0  0  0  0  0  0  0  0  0  0  0  0
   12.7361   -0.5921   -0.5029 C   0  0  0  0  0  0  0  0  0  0  0  0
   12.8014   -1.9813   -0.6927 C   0  0  0  0  0  0  0  0  0  0  0  0
   11.7682   -2.6788   -1.3346 C   0  0  0  0  0  0  0  0  0  0  0  0
   13.8565    0.1813    0.2169 C   0  0  0  0  0  0  0  0  0  0  0  0
   15.2518   -0.4411   -0.0222 C   0  0  0  0  0  0  0  0  0  0  0  0
   13.9525    1.6550   -0.2448 C   0  0  0  0  0  0  0  0  0  0  0  0
   13.5635    0.1633    1.7297 C   0  0  0  0  0  0  0  0  0  0  0  0
    0.5741    1.1103   -3.0462 H   0  0  0  0  0  0  0  0  0  0  0  0
    2.2013   -2.6246   -1.9451 H   0  0  0  0  0  0  0  0  0  0  0  0
    2.4567   -1.6688   -0.4587 H   0  0  0  0  0  0  0  0  0  0  0  0
    7.5343   -3.0950   -1.0081 H   0  0  0  0  0  0  0  0  0  0  0  0
    6.4730   -5.1170   -2.0816 H   0  0  0  0  0  0  0  0  0  0  0  0
    8.2207   -5.0815   -2.2762 H   0  0  0  0  0  0  0  0  0  0  0  0
    7.1140   -5.7153   -4.3871 H   0  0  0  0  0  0  0  0  0  0  0  0
    6.1347   -4.2536   -4.3616 H   0  0  0  0  0  0  0  0  0  0  0  0
    9.1739   -4.4227   -4.6461 H   0  0  0  0  0  0  0  0  0  0  0  0
    8.0245   -3.9323   -5.8859 H   0  0  0  0  0  0  0  0  0  0  0  0
    9.2056   -2.0048   -4.8157 H   0  0  0  0  0  0  0  0  0  0  0  0
    7.4477   -1.9060   -4.6884 H   0  0  0  0  0  0  0  0  0  0  0  0
    8.2972   -1.2683   -2.5732 H   0  0  0  0  0  0  0  0  0  0  0  0
    9.6997   -0.0589   -1.9506 H   0  0  0  0  0  0  0  0  0  0  0  0
   11.4394    1.1222   -0.8279 H   0  0  0  0  0  0  0  0  0  0  0  0
   13.6529   -2.5584   -0.3427 H   0  0  0  0  0  0  0  0  0  0  0  0
   11.8592   -3.7543   -1.4704 H   0  0  0  0  0  0  0  0  0  0  0  0
   15.3475   -1.4333    0.4315 H   0  0  0  0  0  0  0  0  0  0  0  0
   16.0420    0.1773    0.4210 H   0  0  0  0  0  0  0  0  0  0  0  0
   15.4659   -0.5354   -1.0931 H   0  0  0  0  0  0  0  0  0  0  0  0
   13.0718    2.2384    0.0451 H   0  0  0  0  0  0  0  0  0  0  0  0
   14.0624    1.7236   -1.3334 H   0  0  0  0  0  0  0  0  0  0  0  0
   14.8158    2.1572    0.2081 H   0  0  0  0  0  0  0  0  0  0  0  0
   12.5957    0.6263    1.9557 H   0  0  0  0  0  0  0  0  0  0  0  0
   14.3314    0.7113    2.2882 H   0  0  0  0  0  0  0  0  0  0  0  0
   13.5363   -0.8604    2.1211 H   0  0  0  0  0  0  0  0  0  0  0  0
  1  2  3  0  0  0  0
  1 25  1  0  0  0  0
  2  3  1  0  0  0  0
  3  4  1  0  0  0  0
  3 26  1  0  0  0  0
  3 27  1  0  0  0  0
  4  5  1  0  0  0  0
  5  7  1  0  0  0  0
  5  6  2  0  0  0  0
  7  8  1  0  0  0  0
  8 13  1  0  0  0  0
  8  9  1  0  0  0  0
  8 28  1  0  0  0  0
  9 10  1  0  0  0  0
  9 29  1  0  0  0  0
  9 30  1  0  0  0  0
 10 11  1  0  0  0  0
 10 31  1  0  0  0  0
 10 32  1  0  0  0  0
 11 12  1  0  0  0  0
 11 33  1  0  0  0  0
 11 34  1  0  0  0  0
 12 13  1  0  0  0  0
 12 35  1  0  0  0  0
 12 36  1  0  0  0  0
 13 14  1  0  0  0  0
 13 37  1  0  0  0  0
 14 15  1  0  0  0  0
 15 16  2  0  0  0  0
 15 20  1  0  0  0  0
 16 17  1  0  0  0  0
 16 38  1  0  0  0  0
 17 18  2  0  0  0  0
 17 39  1  0  0  0  0
 18 19  1  0  0  0  0
 18 21  1  0  0  0  0
 19 20  2  0  0  0  0
 19 40  1  0  0  0  0
 20 41  1  0  0  0  0
 21 24  1  0  0  0  0
 21 23  1  0  0  0  0
 21 22  1  0  0  0  0
 22 42  1  0  0  0  0
 22 43  1  0  0  0  0
 22 44  1  0  0  0  0
 23 45  1  0  0  0  0
 23 46  1  0  0  0  0
 23 47  1  0  0  0  0
 24 48  1  0  0  0  0
 24 49  1  0  0  0  0
 24 50  1  0  0  0  0
M  END
$$$$