25730269 25730268
 OpenBabel01151412073D

 46 48  0  0  1  0  0  0  0  0999 V2000
    6.0104    5.1049   -3.2684 C   0  0  0  0  0  0  0  0  0  0  0  0
    5.7274    3.9762   -3.5720 C   0  0  0  0  0  0  0  0  0  0  0  0
    5.3755    2.5931   -3.9470 C   0  0  1  0  0  0  0  0  0  0  0  0
    5.2197    2.5717   -5.0345 H   0  0  0  0  0  0  0  0  0  0  0  0
    6.5041    1.5954   -3.5919 C   0  0  0  0  0  0  0  0  0  0  0  0
    5.9951    0.3996   -2.8644 N   0  0  3  0  0  0  0  0  0  0  0  0
    4.9184   -0.2092   -3.6843 C   0  0  0  0  0  0  0  0  0  0  0  0
    3.7214    0.7431   -3.8506 C   0  0  0  0  0  0  0  0  0  0  0  0
    4.0754    2.1195   -3.2593 C   0  0  1  0  0  0  0  0  0  0  0  0
    3.2551    2.8298   -3.4124 H   0  0  0  0  0  0  0  0  0  0  0  0
    4.3418    1.9168   -1.7544 C   0  0  0  0  0  0  0  0  0  0  0  0
    5.4047    0.8086   -1.5540 C   0  0  2  0  0  0  0  0  0  0  0  0
    4.8982   -0.0714   -1.1324 H   0  0  0  0  0  0  0  0  0  0  0  0
    6.4852    1.2177   -0.5235 C   0  0  0  0  0  0  0  0  0  0  0  0
    5.9353    1.5003    0.7992 N   0  0  0  0  0  0  0  0  0  0  0  0
    5.5621    0.6665    1.8167 C   0  0  0  0  0  0  0  0  0  0  0  0
    4.8517    1.4320    3.1203 S   0  0  0  0  0  0  0  0  0  0  0  0
    5.8588   -0.6603    1.6359 N   0  0  0  0  0  0  0  0  0  0  0  0
    5.5743   -1.8062    2.4174 C   0  0  0  0  0  0  0  0  0  0  0  0
    4.5780   -1.8907    3.3879 C   0  0  0  0  0  0  0  0  0  0  0  0
    4.3968   -3.0680    4.1253 C   0  0  0  0  0  0  0  0  0  0  0  0
    5.2081   -4.1788    3.9071 C   0  0  0  0  0  0  0  0  0  0  0  0
    6.1706   -4.1263    2.9034 C   0  0  0  0  0  0  0  0  0  0  0  0
    6.3450   -2.9501    2.1609 C   0  0  0  0  0  0  0  0  0  0  0  0
    4.9460   -5.2620    4.6983 O   0  0  0  0  0  0  0  0  0  0  0  0
    6.0435   -6.1411    4.9190 C   0  0  0  0  0  0  0  0  0  0  0  0
    6.2575    6.1058   -3.0000 H   0  0  0  0  0  0  0  0  0  0  0  0
    7.3107    2.0689   -3.0200 H   0  0  0  0  0  0  0  0  0  0  0  0
    6.9873    1.2591   -4.5194 H   0  0  0  0  0  0  0  0  0  0  0  0
    4.5874   -1.1499   -3.2273 H   0  0  0  0  0  0  0  0  0  0  0  0
    5.3168   -0.4870   -4.6685 H   0  0  0  0  0  0  0  0  0  0  0  0
    3.4671    0.8401   -4.9127 H   0  0  0  0  0  0  0  0  0  0  0  0
    2.8410    0.3324   -3.3419 H   0  0  0  0  0  0  0  0  0  0  0  0
    4.6524    2.8638   -1.2989 H   0  0  0  0  0  0  0  0  0  0  0  0
    3.4109    1.6182   -1.2560 H   0  0  0  0  0  0  0  0  0  0  0  0
    7.2461    0.4357   -0.4374 H   0  0  0  0  0  0  0  0  0  0  0  0
    6.9973    2.1347   -0.8330 H   0  0  0  0  0  0  0  0  0  0  0  0
    5.6905    2.4685    0.9805 H   0  0  0  0  0  0  0  0  0  0  0  0
    6.5211   -0.8332    0.8949 H   0  0  0  0  0  0  0  0  0  0  0  0
    3.8968   -1.0737    3.5900 H   0  0  0  0  0  0  0  0  0  0  0  0
    3.6188   -3.1091    4.8840 H   0  0  0  0  0  0  0  0  0  0  0  0
    6.7923   -4.9834    2.6679 H   0  0  0  0  0  0  0  0  0  0  0  0
    7.1121   -2.9396    1.3904 H   0  0  0  0  0  0  0  0  0  0  0  0
    5.7607   -6.8334    5.7179 H   0  0  0  0  0  0  0  0  0  0  0  0
    6.9331   -5.5943    5.2510 H   0  0  0  0  0  0  0  0  0  0  0  0
    6.2575   -6.7349    4.0251 H   0  0  0  0  0  0  0  0  0  0  0  0
  1  2  3  0  0  0  0
  1 27  1  0  0  0  0
  3  5  1  0  0  0  0
  3  9  1  0  0  0  0
  3  4  1  6  0  0  0
  3  2  1  0  0  0  0
  5  6  1  0  0  0  0
  5 28  1  0  0  0  0
  5 29  1  0  0  0  0
  6 12  1  0  0  0  0
  6  7  1  0  0  0  0
  7  8  1  0  0  0  0
  7 30  1  0  0  0  0
  7 31  1  0  0  0  0
  8  9  1  0  0  0  0
  8 32  1  0  0  0  0
  8 33  1  0  0  0  0
  9 11  1  0  0  0  0
  9 10  1  6  0  0  0
 11 12  1  0  0  0  0
 11 34  1  0  0  0  0
 11 35  1  0  0  0  0
 12 13  1  1  0  0  0
 12 14  1  0  0  0  0
 14 15  1  0  0  0  0
 14 36  1  0  0  0  0
 14 37  1  0  0  0  0
 15 16  1  0  0  0  0
 15 38  1  0  0  0  0
 16 18  1  0  0  0  0
 16 17  2  0  0  0  0
 18 19  1  0  0  0  0
 18 39  1  0  0  0  0
 19 20  2  0  0  0  0
 19 24  1  0  0  0  0
 20 21  1  0  0  0  0
 20 40  1  0  0  0  0
 21 22  2  0  0  0  0
 21 41  1  0  0  0  0
 22 23  1  0  0  0  0
 22 25  1  0  0  0  0
 23 24  2  0  0  0  0
 23 42  1  0  0  0  0
 24 43  1  0  0  0  0
 25 26  1  0  0  0  0
 26 44  1  0  0  0  0
 26 45  1  0  0  0  0
 26 46  1  0  0  0  0
M  END
$$$$