44148827 44148826
 OpenBabel01151412053D

 40 41  0  0  0  0  0  0  0  0999 V2000
   -1.5738    1.0298    0.1390 C   0  0  0  0  0  0  0  0  0  0  0  0
   -1.3644   -0.0581    0.6052 C   0  0  0  0  0  0  0  0  0  0  0  0
   -1.1397   -1.4167    1.1179 C   0  0  0  0  0  0  0  0  0  0  0  0
   -0.9661   -1.4613    2.5711 N   0  0  0  0  0  0  0  0  0  0  0  0
    0.3279   -1.7282    3.0409 C   0  0  0  0  0  0  0  0  0  0  0  0
    1.2832   -1.9207    2.2825 O   0  0  0  0  0  0  0  0  0  0  0  0
    0.5983   -1.9342    4.4915 C   0  0  0  0  0  0  0  0  0  0  0  0
    1.3159   -3.0863    4.8364 C   0  0  0  0  0  0  0  0  0  0  0  0
    1.5203   -3.4288    6.1758 C   0  0  0  0  0  0  0  0  0  0  0  0
    1.0096   -2.6263    7.2031 C   0  0  0  0  0  0  0  0  0  0  0  0
    0.3732   -1.4229    6.8460 C   0  0  0  0  0  0  0  0  0  0  0  0
    0.1923   -1.0650    5.5036 C   0  0  0  0  0  0  0  0  0  0  0  0
    1.0799   -3.0222    8.6726 C   0  0  0  0  0  0  0  0  0  0  0  0
   -0.3115   -3.4397    9.1679 C   0  0  0  0  0  0  0  0  0  0  0  0
    2.0830   -4.1342    9.0042 C   0  0  0  0  0  0  0  0  0  0  0  0
   -2.0707   -1.0183    3.4312 C   0  0  0  0  0  0  0  0  0  0  0  0
   -3.4373   -1.2915    2.9162 C   0  0  0  0  0  0  0  0  0  0  0  0
   -4.1657   -2.4448    2.7067 C   0  0  0  0  0  0  0  0  0  0  0  0
   -5.4558   -2.0330    2.2932 C   0  0  0  0  0  0  0  0  0  0  0  0
   -5.4347   -0.6585    2.2784 C   0  0  0  0  0  0  0  0  0  0  0  0
   -4.2152   -0.1998    2.6567 O   0  0  0  0  0  0  0  0  0  0  0  0
   -1.7702    1.9878   -0.2917 H   0  0  0  0  0  0  0  0  0  0  0  0
   -0.2689   -1.8458    0.6090 H   0  0  0  0  0  0  0  0  0  0  0  0
   -1.9745   -2.0719    0.8503 H   0  0  0  0  0  0  0  0  0  0  0  0
    1.7051   -3.7374    4.0560 H   0  0  0  0  0  0  0  0  0  0  0  0
    2.0646   -4.3457    6.3876 H   0  0  0  0  0  0  0  0  0  0  0  0
   -0.0073   -0.7600    7.6214 H   0  0  0  0  0  0  0  0  0  0  0  0
   -0.2870   -0.1190    5.2724 H   0  0  0  0  0  0  0  0  0  0  0  0
    1.3963   -2.1346    9.2369 H   0  0  0  0  0  0  0  0  0  0  0  0
   -0.6974   -4.2929    8.5976 H   0  0  0  0  0  0  0  0  0  0  0  0
   -1.0345   -2.6227    9.0697 H   0  0  0  0  0  0  0  0  0  0  0  0
   -0.2816   -3.7257   10.2250 H   0  0  0  0  0  0  0  0  0  0  0  0
    1.8065   -5.0853    8.5346 H   0  0  0  0  0  0  0  0  0  0  0  0
    2.1221   -4.3070   10.0859 H   0  0  0  0  0  0  0  0  0  0  0  0
    3.0926   -3.8690    8.6733 H   0  0  0  0  0  0  0  0  0  0  0  0
   -1.9366    0.0584    3.5912 H   0  0  0  0  0  0  0  0  0  0  0  0
   -2.0034   -1.5132    4.4022 H   0  0  0  0  0  0  0  0  0  0  0  0
   -3.8095   -3.4549    2.8519 H   0  0  0  0  0  0  0  0  0  0  0  0
   -6.3023   -2.6590    2.0478 H   0  0  0  0  0  0  0  0  0  0  0  0
   -6.1677    0.1013    2.0444 H   0  0  0  0  0  0  0  0  0  0  0  0
  1  2  3  0  0  0  0
  1 22  1  0  0  0  0
  2  3  1  0  0  0  0
  3  4  1  0  0  0  0
  3 23  1  0  0  0  0
  3 24  1  0  0  0  0
  4 16  1  0  0  0  0
  4  5  1  0  0  0  0
  5  7  1  0  0  0  0
  5  6  2  0  0  0  0
  7  8  2  0  0  0  0
  7 12  1  0  0  0  0
  8  9  1  0  0  0  0
  8 25  1  0  0  0  0
  9 10  2  0  0  0  0
  9 26  1  0  0  0  0
 10 11  1  0  0  0  0
 10 13  1  0  0  0  0
 11 12  2  0  0  0  0
 11 27  1  0  0  0  0
 12 28  1  0  0  0  0
 13 15  1  0  0  0  0
 13 14  1  0  0  0  0
 13 29  1  0  0  0  0
 14 30  1  0  0  0  0
 14 31  1  0  0  0  0
 14 32  1  0  0  0  0
 15 33  1  0  0  0  0
 15 34  1  0  0  0  0
 15 35  1  0  0  0  0
 16 17  1  0  0  0  0
 16 36  1  0  0  0  0
 16 37  1  0  0  0  0
 17 18  2  0  0  0  0
 17 21  1  0  0  0  0
 18 19  1  0  0  0  0
 18 38  1  0  0  0  0
 19 20  2  0  0  0  0
 19 39  1  0  0  0  0
 20 21  1  0  0  0  0
 20 40  1  0  0  0  0
M  END
$$$$