44456806 44456805
 OpenBabel01151412123D

 45 47  0  0  1  0  0  0  0  0999 V2000
    4.0358   -1.2022   -2.1760 C   0  0  0  0  0  0  0  0  0  0  0  0
    3.7275   -0.4130   -1.3264 C   0  0  0  0  0  0  0  0  0  0  0  0
    3.3312    0.5726   -0.2971 C   0  0  0  0  0  0  0  0  0  0  0  0
    3.9359    1.9933   -0.5437 C   0  0  3  0  0  0  0  0  0  0  0  0
    3.4935    2.5790   -1.9229 C   0  0  0  0  0  0  0  0  0  0  0  0
    2.2164    2.3048   -2.4542 C   0  0  0  0  0  0  0  0  0  0  0  0
    1.8088    2.8197   -3.6912 C   0  0  0  0  0  0  0  0  0  0  0  0
    2.6596    3.6494   -4.4209 C   0  0  0  0  0  0  0  0  0  0  0  0
    3.9092    3.9754   -3.8930 C   0  0  0  0  0  0  0  0  0  0  0  0
    4.3167    3.4528   -2.6590 C   0  0  0  0  0  0  0  0  0  0  0  0
    2.2816    4.2042   -5.7417 C   0  0  0  0  0  0  0  0  0  0  0  0
    2.9662    4.9381   -6.4302 O   0  0  0  0  0  0  0  0  0  0  0  0
    1.0651    3.8019   -6.1495 O   0  0  0  0  0  0  0  0  0  0  0  0
    3.4658    2.9920    0.5279 C   0  0  0  0  0  0  0  0  0  0  0  0
    3.8258    4.1586    0.6198 O   0  0  0  0  0  0  0  0  0  0  0  0
    2.5744    2.5149    1.4196 O   0  0  0  0  0  0  0  0  0  0  0  0
    5.5015    1.9119   -0.4143 C   0  0  0  0  0  0  0  0  0  0  0  0
    6.0521    1.3272    0.8660 C   0  0  0  0  0  0  0  0  0  0  0  0
    7.2858    0.7048    0.9093 C   0  0  0  0  0  0  0  0  0  0  0  0
    7.8388    0.2445    2.0590 N   0  0  0  0  0  0  0  0  0  0  0  0
    7.1642    0.4237    3.2028 C   0  0  0  0  0  0  0  0  0  0  0  0
    5.9211    1.0589    3.1640 C   0  0  0  0  0  0  0  0  0  0  0  0
    5.3584    1.5112    2.0048 N   0  0  0  0  0  0  0  0  0  0  0  0
    5.2983    1.1590    4.4023 C   0  0  0  0  0  0  0  0  0  0  0  0
    4.0438    1.7901    4.5217 N   0  0  0  0  0  0  0  0  0  0  0  0
    5.8349    0.7182    5.5483 N   0  0  0  0  0  0  0  0  0  0  0  0
    7.0375    0.1577    5.4597 C   0  0  0  0  0  0  0  0  0  0  0  0
    7.7098   -0.0277    4.3288 N   0  0  0  0  0  0  0  0  0  0  0  0
    7.6052   -0.3094    6.6245 N   0  0  0  0  0  0  0  0  0  0  0  0
    4.2947   -1.8916   -2.9481 H   0  0  0  0  0  0  0  0  0  0  0  0
    3.6217    0.1795    0.6835 H   0  0  0  0  0  0  0  0  0  0  0  0
    2.2365    0.6112   -0.2514 H   0  0  0  0  0  0  0  0  0  0  0  0
    1.5017    1.6802   -1.9235 H   0  0  0  0  0  0  0  0  0  0  0  0
    0.8220    2.5643   -4.0706 H   0  0  0  0  0  0  0  0  0  0  0  0
    4.5746    4.6444   -4.4357 H   0  0  0  0  0  0  0  0  0  0  0  0
    5.2890    3.7690   -2.2910 H   0  0  0  0  0  0  0  0  0  0  0  0
    0.9578    4.2299   -7.0248 H   0  0  0  0  0  0  0  0  0  0  0  0
    2.4814    3.2665    2.0460 H   0  0  0  0  0  0  0  0  0  0  0  0
    5.9450    2.9139   -0.4777 H   0  0  0  0  0  0  0  0  0  0  0  0
    5.9031    1.3405   -1.2621 H   0  0  0  0  0  0  0  0  0  0  0  0
    7.8874    0.5574    0.0181 H   0  0  0  0  0  0  0  0  0  0  0  0
    3.7089    1.6642    5.4720 H   0  0  0  0  0  0  0  0  0  0  0  0
    3.4071    1.4501    3.8061 H   0  0  0  0  0  0  0  0  0  0  0  0
    8.2753   -1.0396    6.4266 H   0  0  0  0  0  0  0  0  0  0  0  0
    6.8972   -0.4978    7.3197 H   0  0  0  0  0  0  0  0  0  0  0  0
  1  2  3  0  0  0  0
  1 30  1  0  0  0  0
  2  3  1  0  0  0  0
  3  4  1  0  0  0  0
  3 31  1  0  0  0  0
  3 32  1  0  0  0  0
  4 17  1  0  0  0  0
  4 14  1  0  0  0  0
  4  5  1  0  0  0  0
  5  6  2  0  0  0  0
  5 10  1  0  0  0  0
  6  7  1  0  0  0  0
  6 33  1  0  0  0  0
  7  8  2  0  0  0  0
  7 34  1  0  0  0  0
  8  9  1  0  0  0  0
  8 11  1  0  0  0  0
  9 10  2  0  0  0  0
  9 35  1  0  0  0  0
 10 36  1  0  0  0  0
 11 13  1  0  0  0  0
 11 12  2  0  0  0  0
 13 37  1  0  0  0  0
 14 16  1  0  0  0  0
 14 15  2  0  0  0  0
 16 38  1  0  0  0  0
 17 18  1  0  0  0  0
 17 39  1  0  0  0  0
 17 40  1  0  0  0  0
 18 19  2  0  0  0  0
 18 23  1  0  0  0  0
 19 20  1  0  0  0  0
 19 41  1  0  0  0  0
 20 21  2  0  0  0  0
 21 28  1  0  0  0  0
 21 22  1  0  0  0  0
 22 24  1  0  0  0  0
 22 23  2  0  0  0  0
 24 26  2  0  0  0  0
 24 25  1  0  0  0  0
 25 42  1  0  0  0  0
 25 43  1  0  0  0  0
 26 27  1  0  0  0  0
 27 28  2  0  0  0  0
 27 29  1  0  0  0  0
 29 44  1  0  0  0  0
 29 45  1  0  0  0  0
M  END
$$$$