46003804 46003803
 OpenBabel01151412063D

 18 17  0  0  0  0  0  0  0  0999 V2000
    3.9429    2.0418    1.5719 O   0  0  0  0  0  0  0  0  0  0  0  0
    2.8893    1.9855    0.7482 C   0  0  0  0  0  0  0  0  0  0  0  0
    1.8062    2.4504    1.0546 O   0  0  0  0  0  0  0  0  0  0  0  0
    3.2060    1.4509   -0.5806 C   0  0  0  0  0  0  0  0  0  0  0  0
    4.1518    0.5525   -0.8850 C   0  0  0  0  0  0  0  0  0  0  0  0
    4.9882   -0.1380    0.1189 C   0  0  0  0  0  0  0  0  0  0  0  0
    4.5048   -0.7966    1.0278 O   0  0  0  0  0  0  0  0  0  0  0  0
    6.3245    0.0108   -0.1316 N   0  0  0  0  0  0  0  0  0  0  0  0
    7.3033   -0.5609    0.7540 C   0  0  0  0  0  0  0  0  0  0  0  0
    8.6534   -0.2470    0.2726 C   0  0  0  0  0  0  0  0  0  0  0  0
    9.7537    0.0191   -0.1255 C   0  0  0  0  0  0  0  0  0  0  0  0
    3.5720    2.3862    2.4101 H   0  0  0  0  0  0  0  0  0  0  0  0
    2.5688    1.8425   -1.3663 H   0  0  0  0  0  0  0  0  0  0  0  0
    4.3049    0.2408   -1.9117 H   0  0  0  0  0  0  0  0  0  0  0  0
    6.6362    0.6567   -0.8432 H   0  0  0  0  0  0  0  0  0  0  0  0
    7.1431   -1.6442    0.7946 H   0  0  0  0  0  0  0  0  0  0  0  0
    7.1414   -0.1598    1.7602 H   0  0  0  0  0  0  0  0  0  0  0  0
   10.7323    0.2566   -0.4774 H   0  0  0  0  0  0  0  0  0  0  0  0
  1  2  1  0  0  0  0
  1 12  1  0  0  0  0
  2  4  1  0  0  0  0
  2  3  2  0  0  0  0
  4  5  2  0  0  0  0
  4 13  1  0  0  0  0
  5  6  1  0  0  0  0
  5 14  1  0  0  0  0
  6  8  1  0  0  0  0
  6  7  2  0  0  0  0
  8  9  1  0  0  0  0
  8 15  1  0  0  0  0
  9 10  1  0  0  0  0
  9 16  1  0  0  0  0
  9 17  1  0  0  0  0
 10 11  3  0  0  0  0
 11 18  1  0  0  0  0
M  END
$$$$